/*--------------------------------*- C++ -*----------------------------------*\
| =========                 |                                                 |
| \\      /  F ield         | OpenFOAM: The Open Source CFD Toolbox           |
|  \\    /   O peration     | Version:  2406                                  |
|   \\  /    A nd           | Website:  www.openfoam.com                      |
|    \\/     M anipulation  |                                                 |
\*---------------------------------------------------------------------------*/
FoamFile
{
    version     2.0;
    format      binary;
    arch        "LSB;label=32;scalar=64";
    class       polyBoundaryMesh;
    location    "constant/polyMesh";
    object      boundary;
}
// * * * * * * * * * * * * * * * * * * * * * * * * * * * * * * * * * * * * * //

6
(
    outlet
    {
        type            patch;
        nFaces          140;
        startFace       529482;
    }
    symmetry
    {
        type            patch;
        nFaces          6696;
        startFace       529622;
    }
    inlet
    {
        type            patch;
        nFaces          140;
        startFace       536318;
    }
    wall
    {
        type            wall;
        inGroups        1(wall);
        nFaces          3938;
        startFace       536458;
    }
    optSurface
    {
        type            wall;
        inGroups        1(wall);
        nFaces          10300;
        startFace       540396;
    }
    body
    {
        type            wall;
        inGroups        1(wall);
        nFaces          40292;
        startFace       550696;
    }
)

// ************************************************************************* //
