/*--------------------------------*- C++ -*----------------------------------*\
| =========                 |                                                 |
| \\      /  F ield         | OpenFOAM: The Open Source CFD Toolbox           |
|  \\    /   O peration     | Version:  v1812                                 |
|   \\  /    A nd           | Web:      www.OpenFOAM.com                      |
|    \\/     M anipulation  |                                                 |
\*---------------------------------------------------------------------------*/
FoamFile
{
    version     2.0;
    format      ascii;
    class       extendedFeatureEdgeMesh;
    location    "constant/extendedFeatureEdgeMesh";
    object      body.extendedFeatureEdgeMesh;
}
// * * * * * * * * * * * * * * * * * * * * * * * * * * * * * * * * * * * * * //

// points

4480
(
(-0.7753337 0.037831251 0.29701379)
(-0.72954208 0.361031 -0.2192176)
(1.498474 0.51921731 -0.8691107)
(-0.73820639 0.3639589 -0.045133822)
(-0.71493852 0.35239369 0.33909449)
(-0.71501738 0.35249379 0.3365944)
(-0.7385233 0.36414149 -0.0052070948)
(-0.73847753 0.3644641 -0.035594359)
(-0.73854488 0.36419359 0.005222938)
(-0.72239751 0.35698771 -0.27897349)
(-0.72237718 0.35856199 -0.28178781)
(1.468502 0.50310123 -0.87516052)
(1.501248 0.50396758 -0.8606202)
(-0.77430439 0.061679929 0.27849221)
(-0.77241731 0.05974235 0.27761009)
(-0.77691048 0.062336851 0.27912101)
(-0.7718569 0.057030682 0.27692229)
(-0.77035928 0.041469101 0.2921575)
(0.97636861 0.77871782 0.71813428)
(1.53 0.55300009 0.85672122)
(0.92535228 0.61635011 0.77962321)
(0.97636861 0.77871782 -0.71813422)
(0.87832868 -0.1578557 -0.74476743)
(0.88665622 -0.1577802 -0.74290031)
(0.89621651 -0.15769351 -0.74073398)
(0.90701538 -0.1575956 -0.73825771)
(0.91737467 -0.1575017 -0.73585451)
(0.92735291 -0.1574112 -0.73351407)
(0.93598813 -0.1573329 -0.73146778)
(1.53 0.55299997 -0.85672128)
(0.98216391 -0.1569142 -0.71931452)
(0.984101 -0.15689661 -0.71832848)
(0.9813832 -0.1569213 -0.71974701)
(1.53 1.002757 -0.61572772)
(0.74507362 0.60928482 0.77423447)
(0.74496341 0.61037982 0.77369618)
(0.74497259 0.60949701 -0.77412248)
(0.74573231 0.60868913 -0.77457958)
(0.74503779 0.61057889 -0.77360779)
(0.81764388 0.74612242 -0.67776167)
(0.92535228 0.61635011 -0.77962333)
(0.74918979 0.60831559 0.77440482)
(1.53 1.002756 0.6157279)
(1.010676 0.80084282 0.7095629)
(1.012399 0.80194801 0.70912808)
(1.01415 0.80306911 0.70868582)
(1.015864 0.8041653 0.70825207)
(0.74918979 0.60831559 -0.77440482)
(3.7256031 0.55300009 -0.01326735)
(3.7256341 0.55299997 1.730971e-09)
(3.725493 0.55299997 -0.028506029)
(3.7252989 0.55299991 -0.043752201)
(3.7250209 0.55299979 -0.058900911)
(3.724658 0.55299968 -0.074033007)
(3.724205 0.55299962 -0.089250863)
(3.72366 0.55299962 -0.1044409)
(3.723026 0.55299968 -0.1195522)
(3.722296 0.55299979 -0.1346693)
(3.7214639 0.55299991 -0.14985991)
(3.7205369 0.55299997 -0.1649455)
(3.7195079 0.55299997 -0.1800257)
(3.7183721 0.55299997 -0.19512729)
(3.717129 0.55299997 -0.21020401)
(3.7157791 0.55299997 -0.22522201)
(3.7143159 0.55299997 -0.2402353)
(3.7127321 0.55299997 -0.2552709)
(3.7110391 0.55299997 -0.2701996)
(3.7092221 0.55299997 -0.2851277)
(3.7072721 0.55299997 -0.3000851)
(3.705204 0.55299997 -0.31494531)
(3.703002 0.55299997 -0.32979769)
(3.7006569 0.55299997 -0.34466541)
(3.6981721 0.55299997 -0.35949731)
(3.695533 0.55299997 -0.37435681)
(3.692754 0.55299997 -0.38913059)
(3.689832 0.55299997 -0.40381989)
(3.6867509 0.55299997 -0.41848391)
(3.683511 0.55299997 -0.43309841)
(3.6801081 0.55299997 -0.44765699)
(3.6765211 0.55300009 -0.46222079)
(3.672786 0.55300009 -0.47662869)
(3.6688659 0.55300009 -0.4910017)
(3.6647611 0.55300009 -0.50531781)
(3.66047 0.55299997 -0.51955861)
(3.6559851 0.55299997 -0.5337286)
(3.651325 0.55299991 -0.54774779)
(3.646461 0.55299997 -0.56168681)
(3.6413851 0.55299997 -0.57555091)
(1.53 1.086231 1.199239e-13)
(1.529999 1.086201 -0.01993631)
(1.53 1.08611 -0.039873339)
(1.53 1.085956 -0.0598097)
(1.53 1.085736 -0.079745091)
(1.53 1.085449 -0.099679463)
(1.530001 1.0850919 -0.1196126)
(1.530001 1.084663 -0.13954429)
(1.530001 1.0841579 -0.159474)
(1.530001 1.083576 -0.17940129)
(1.53 1.082913 -0.1993137)
(1.53 1.082165 -0.2192491)
(1.53 1.0813299 -0.23916879)
(1.529999 1.080404 -0.2590839)
(1.529999 1.0793819 -0.27899411)
(1.529999 1.078262 -0.29889891)
(1.53 1.077037 -0.31879759)
(1.53 1.0757051 -0.338689)
(1.53 1.074258 -0.35857171)
(1.530001 1.072692 -0.37844631)
(1.530001 1.0710011 -0.39831051)
(1.530001 1.069178 -0.4181636)
(1.530001 1.067346 -0.4367373)
(1.530001 1.0656739 -0.45264351)
(1.53 1.064159 -0.466297)
(1.53 1.062795 -0.47804311)
(1.53 1.061573 -0.4881596)
(1.53 1.060491 -0.49682781)
(1.53 1.059536 -0.5042581)
(1.53 1.058697 -0.51062518)
(1.53 1.057963 -0.51608241)
(1.53 1.057317 -0.52079791)
(1.53 1.0567549 -0.52484119)
(1.53 1.056269 -0.52828389)
(1.53 1.055843 -0.53127402)
(1.53 1.055475 -0.53382778)
(1.53 1.055118 -0.53629071)
(1.53 0.99525219 0.61543632)
(1.53 0.99691421 0.6147328)
(1.53 0.99871731 0.61465567)
(1.53 1.000398 0.61520082)
(0.97292769 0.78001243 0.71982467)
(0.97461408 0.7796455 0.71876508)
(0.97771788 0.77717608 0.71838951)
(1.53 1.022529 0.60320097)
(1.53 1.027323 0.59974521)
(1.53 1.031921 0.59603387)
(1.53 1.036954 0.59137517)
(1.53 1.042354 0.58537132)
(1.53 1.046878 0.5790568)
(1.53 1.05015 0.57322639)
(1.53 1.0524499 0.56801188)
(1.53 1.054065 0.56339997)
(1.53 1.05521 0.55934858)
(1.53 1.056042 0.55578429)
(1.53 1.056687 0.5525226)
(1.53 1.05711 0.5500803)
(1.53 1.057497 0.54763192)
(1.53 1.055118 0.53629071)
(1.529999 1.055483 0.53377461)
(1.53 1.055846 0.53125262)
(1.53 1.056219 0.52864039)
(1.53 1.056648 0.52560443)
(1.53 1.0571409 0.52207381)
(1.53 1.057704 0.51798141)
(1.53 1.058344 0.51326489)
(1.53 1.05907 0.50781173)
(1.53 1.0598921 0.50150877)
(1.53 1.0608211 0.49421439)
(1.53 1.061866 0.48577029)
(1.53 1.063038 0.47598529)
(1.530001 1.064347 0.4646354)
(1.530001 1.0658031 0.4514432)
(1.530001 1.067408 0.43613049)
(1.530001 1.0692019 0.4179168)
(1.530001 1.071022 0.3980754)
(1.53 1.072711 0.37822169)
(1.53 1.0742739 0.35835871)
(1.53 1.075719 0.33848819)
(1.53 1.07705 0.31860861)
(1.529999 1.078272 0.29872161)
(1.529999 1.079391 0.27882841)
(1.529999 1.080411 0.25892991)
(1.53 1.08134 0.2389486)
(1.53 1.08217 0.2191181)
(1.53 1.082917 0.1992089)
(1.53 1.0835789 0.1792957)
(1.530001 1.084161 0.1593793)
(1.530001 1.0846649 0.1394605)
(1.530001 1.085094 0.1195401)
(1.53 1.0854501 0.099618614)
(1.53 1.085737 0.079696141)
(1.53 1.085956 0.059773002)
(1.53 1.08611 0.039849609)
(1.53 1.086201 0.019925071)
(2.452791 0.55299997 0.84480822)
(2.4525819 0.55299997 0.8448174)
(2.4553161 0.55300027 0.84469652)
(2.4578409 0.55300027 0.84458452)
(2.4603729 0.55300027 0.84447181)
(2.462908 0.55300009 0.8443585)
(2.465636 0.55299991 0.8442359)
(2.4683981 0.55299968 0.84411138)
(2.4712911 0.55299962 0.84398019)
(2.4743559 0.5529995 0.84384048)
(2.4776051 0.55299962 0.84369153)
(2.4809871 0.55299968 0.8435356)
(2.4849861 0.55299991 0.84334999)
(2.4889851 0.55299997 0.84316331)
(2.4933319 0.55300009 0.84295893)
(2.4980371 0.55300009 0.84273612)
(2.503274 0.55300009 0.84248602)
(2.5091391 0.55300009 0.84220338)
(2.515712 0.55300021 0.8418836)
(2.5222631 0.55300021 0.84156138)
(2.5287991 0.55300027 0.84123647)
(2.535326 0.55300027 0.84090883)
(2.5418341 0.55300027 0.84057862)
(2.5483241 0.55300027 0.84024602)
(2.5548041 0.55300039 0.83991051)
(2.561276 0.55300039 0.83957207)
(2.5677381 0.55300039 0.83923078)
(2.5741999 0.55300039 0.8388862)
(2.5806921 0.55300039 0.8385365)
(2.587765 0.55300039 0.83815169)
(2.5951171 0.55300039 0.83774728)
(2.602468 0.55300039 0.83733851)
(2.6098039 0.55300039 0.8369261)
(2.61713 0.55300039 0.83650982)
(2.624455 0.55300027 0.83608907)
(2.6317661 0.55300027 0.83566481)
(2.639066 0.55300021 0.83523661)
(2.6463649 0.55300021 0.834804)
(2.6536491 0.55300009 0.83436769)
(2.6609221 0.55300009 0.83392757)
(2.6681941 0.55299997 0.83348298)
(2.675451 0.55299991 0.83303487)
(2.6826999 0.55299991 0.83258271)
(2.6899481 0.55299979 0.83212602)
(2.6971779 0.55299979 0.83166587)
(2.7044029 0.55299968 0.83120149)
(2.7116239 0.55299968 0.83073282)
(2.718828 0.55299968 0.83026057)
(2.726033 0.55299968 0.8297838)
(2.7332251 0.55299968 0.82930321)
(2.740407 0.55299979 0.82881868)
(2.7475879 0.55299979 0.82832962)
(2.7547541 0.55299991 0.82783687)
(2.7619171 0.55299991 0.82733971)
(2.7690699 0.55299991 0.82683861)
(2.7762129 0.55299997 0.82633352)
(2.783355 0.55299997 0.82582372)
(2.790482 0.55299997 0.82531029)
(2.7976079 0.55299997 0.82479221)
(2.8047211 0.55299997 0.82427031)
(2.8118269 0.55299997 0.82374418)
(2.8189299 0.55299997 0.8232134)
(2.8260181 0.55299997 0.82267892)
(2.833106 0.55299997 0.8221395)
(2.8401799 0.55300009 0.82159638)
(2.8472531 0.55300009 0.82104832)
(2.8543129 0.55300009 0.82049632)
(2.8613689 0.55300009 0.81993967)
(2.868417 0.55300009 0.81937861)
(2.8754549 0.55300009 0.8188132)
(2.8824921 0.55300009 0.81824291)
(2.889514 0.55300009 0.8176685)
(2.8965371 0.55300009 0.81708902)
(2.9035449 0.55299997 0.81650531)
(2.9105539 0.55299997 0.81591642)
(2.917547 0.55299997 0.81532341)
(2.92454 0.55299997 0.8147251)
(2.9315169 0.55299997 0.81412262)
(2.938494 0.55299997 0.81351459)
(2.945456 0.55299997 0.81290239)
(2.9524181 0.55299991 0.81228453)
(2.9593639 0.55299991 0.81166238)
(2.96631 0.55299991 0.8110345)
(2.973237 0.55299991 0.81040251)
(2.9801631 0.55299991 0.80976468)
(2.9868481 0.55299991 0.80914348)
(2.9928899 0.55299991 0.80857718)
(2.9988639 0.55299991 0.8080126)
(3.00455 0.55299991 0.80747098)
(3.0093369 0.55299991 0.8070116)
(3.014919 0.55299997 0.80647218)
(3.0197811 0.55300021 0.80599892)
(3.024642 0.55299997 0.80552262)
(0.74694473 0.61256242 -0.77279061)
(0.74624389 0.61194271 -0.7730664)
(0.7513538 0.61623943 -0.77030188)
(0.74975199 0.61493713 -0.77118897)
(0.75301367 0.61762983 -0.7697106)
(0.77960873 0.6399532 -0.76441002)
(0.7776832 0.63837802 -0.76480132)
(0.78153729 0.64152378 -0.76401681)
(0.78353781 0.64314812 -0.7636084)
(0.78547311 0.64471442 -0.7632125)
(0.7874155 0.6462813 -0.76281422)
(0.78937489 0.64785713 -0.76241142)
(0.79136127 0.64944959 -0.76200211)
(0.79329222 0.65099287 -0.76160312)
(0.79522812 0.6525358 -0.76120192)
(0.7972191 0.65411788 -0.76078808)
(0.79919487 0.6556834 -0.76037621)
(0.80115592 0.65723288 -0.75996608)
(0.80310541 0.65876907 -0.75955713)
(0.80513072 0.66036057 -0.7591309)
(0.80708981 0.66189599 -0.7587173)
(0.80905509 0.66343242 -0.75830108)
(0.81103468 0.66497582 -0.75788039)
(0.81304318 0.66653782 -0.75745219)
(0.81499201 0.66804969 -0.75703537)
(0.81694913 0.66956431 -0.75661552)
(0.81895751 0.6711148 -0.75618321)
(0.82095402 0.6726523 -0.75575203)
(0.82293171 0.67417192 -0.75532341)
(0.82489753 0.67567879 -0.75489622)
(0.82694221 0.67724282 -0.75445032)
(0.82891959 0.67875171 -0.75401771)
(0.83090299 0.68026179 -0.7535823)
(0.83289778 0.6817773 -0.75314301)
(0.83492422 0.68331319 -0.75269532)
(0.83688712 0.68479812 -0.75226033)
(0.74975181 0.61493719 0.77118909)
(0.75135487 0.61623728 0.77030092)
(0.75301337 0.61763018 0.76971078)
(3.568959 0.55299997 0.71273762)
(3.5672491 0.55299997 0.71496701)
(3.5708389 0.55300009 0.71024841)
(3.573 0.55299938 0.70733958)
(3.5754371 0.55299997 0.70399338)
(3.5781701 0.55299997 0.70015413)
(3.5812299 0.55299997 0.69574583)
(3.58464 0.55299997 0.690687)
(3.5884211 0.55299997 0.68489069)
(3.592597 0.55299997 0.67824519)
(3.5971601 0.55299997 0.67067277)
(3.6021409 0.55299997 0.66200858)
(3.607476 0.55299997 0.65223438)
(3.6130891 0.55299997 0.64135343)
(3.618449 0.55299997 0.63034582)
(1.5368659 0.55300081 0.85683221)
(1.543732 0.55300063 0.85694069)
(1.550632 0.55300009 0.8570469)
(1.557543 0.55299979 0.8571502)
(1.5645 0.55299968 0.85725093)
(1.571551 0.55299991 0.85734969)
(1.578757 0.55300009 0.8574475)
(1.586193 0.55300009 0.85754508)
(1.593961 0.55299997 0.85764343)
(1.602174 0.55299997 0.8577432)
(1.610978 0.55299997 0.85784543)
(1.620454 0.55299997 0.85794997)
(1.63091 0.55299997 0.85805881)
(1.641488 0.55299997 0.85816199)
(1.652001 0.55299997 0.85825759)
(1.662513 0.55299997 0.85834628)
(1.6730241 0.55299997 0.858428)
(1.6840169 0.55299997 0.85850608)
(1.695166 0.55299997 0.85857761)
(1.706246 0.55299997 0.85864103)
(1.717259 0.55299997 0.8586964)
(1.7282031 0.55299997 0.85874403)
(1.739082 0.55299997 0.8587839)
(1.749895 0.55299991 0.85881621)
(1.760643 0.55299991 0.85884112)
(1.771329 0.55299991 0.85885882)
(1.78195 0.55299991 0.85886919)
(1.792509 0.55299991 0.85887259)
(1.80301 0.55299991 0.85886908)
(1.813448 0.55299991 0.85885882)
(1.823826 0.55299991 0.8588419)
(1.8341449 0.55299997 0.85881829)
(1.844407 0.55299997 0.85878831)
(1.8546129 0.55299997 0.85875189)
(1.864763 0.55299997 0.85870922)
(1.874856 0.55299997 0.8586604)
(1.884894 0.55300009 0.8586055)
(1.894877 0.55299997 0.85854471)
(1.904807 0.55299991 0.85847813)
(1.9146841 0.55299991 0.85840559)
(1.924509 0.55299979 0.85832751)
(1.934284 0.55299968 0.8582437)
(1.944008 0.55299968 0.85815442)
(1.95368 0.55299962 0.85805959)
(1.963302 0.55299962 0.85795951)
(1.972875 0.55299962 0.85785413)
(1.9823999 0.55299962 0.8577435)
(1.9918801 0.55299962 0.85762757)
(2.0013101 0.55299962 0.85750681)
(2.0106931 0.55299962 0.85738093)
(2.0200319 0.55299962 0.85724998)
(2.029326 0.55299962 0.85711432)
(2.038573 0.55299962 0.85697371)
(2.0477779 0.55299968 0.85682839)
(2.0569389 0.55299968 0.85667831)
(2.0660551 0.55299968 0.85652357)
(2.0751331 0.55299979 0.85636431)
(2.0841651 0.55299979 0.85620052)
(2.093159 0.55299979 0.85603207)
(2.102109 0.55299991 0.85585928)
(2.1110229 0.55299991 0.85568208)
(2.1198919 0.55299991 0.85550052)
(2.1287251 0.55299991 0.85531467)
(2.137517 0.55299997 0.85512459)
(2.146271 0.55299997 0.85493028)
(2.154989 0.55299997 0.85473168)
(2.163667 0.55299997 0.85452908)
(2.1723101 0.55299997 0.85432231)
(2.180917 0.55299997 0.85411149)
(2.189486 0.55299997 0.85389662)
(2.1980209 0.55299997 0.85367769)
(2.2065229 0.55299997 0.85345489)
(2.214988 0.55299997 0.85322809)
(2.223417 0.55299997 0.85299748)
(2.2318161 0.55299997 0.85276288)
(2.2401841 0.55299997 0.8525244)
(2.2485161 0.55299997 0.85228223)
(2.256814 0.55299997 0.85203618)
(2.26508 0.55299997 0.85178638)
(2.273315 0.55299997 0.85153288)
(2.281522 0.55299997 0.85127562)
(2.2897 0.55299997 0.85101461)
(2.2975941 0.55299997 0.85075808)
(2.304884 0.55299997 0.85051739)
(2.3120611 0.55299997 0.85027683)
(2.3192141 0.55299997 0.8500334)
(2.326339 0.55299997 0.84978741)
(2.3334441 0.55299997 0.84953839)
(2.340519 0.55299997 0.84928691)
(2.347152 0.55300009 0.84904778)
(2.352962 0.55300009 0.84883583)
(2.3581231 0.55300009 0.84864551)
(2.3627901 0.55299991 0.84847182)
(2.367053 0.55299979 0.84831178)
(2.3709781 0.55299968 0.84816331)
(2.3746231 0.55299968 0.84802431)
(2.3780539 0.55299968 0.84789258)
(2.381285 0.55299979 0.84776777)
(2.384366 0.55299997 0.84764791)
(2.3873291 0.55300021 0.84753197)
(2.3901701 0.55300039 0.84742028)
(2.3929451 0.55300069 0.8473106)
(2.395653 0.55300081 0.84720302)
(2.398284 0.55300093 0.84709799)
(2.400851 0.55300081 0.84699512)
(2.4034181 0.55300051 0.84689188)
(2.405899 0.55299997 0.8467918)
(0.92553377 0.6164341 0.7787832)
(0.92571539 0.61651802 0.77794319)
(0.92589688 0.616602 0.77710319)
(1.53 0.64413351 0.78627229)
(1.53 0.64430958 0.78426051)
(1.53 0.64448613 0.78224862)
(0.75486147 0.61922091 -0.76931161)
(0.75677568 0.62086302 -0.76891261)
(0.75866479 0.62247747 -0.76852977)
(0.76054847 0.62408131 -0.76815629)
(0.76243198 0.6256789 -0.76778829)
(0.76438469 0.6273284 -0.76741022)
(0.76626557 0.62891078 -0.76704741)
(0.76816249 0.6305002 -0.76668131)
(0.77008212 0.63210177 -0.7663092)
(0.7720179 0.63371003 -0.76593119)
(0.7739079 0.63527369 -0.76555848)
(0.77579433 0.63682801 -0.76518238)
(0.97771782 0.7771762 -0.71838951)
(0.9746142 0.7796455 -0.71876508)
(0.97292781 0.78001231 -0.71982479)
(0.92810363 0.62154979 0.77242988)
(0.92768991 0.6202814 0.77278417)
(0.92851722 0.62281787 0.7720744)
(0.92899829 0.62429279 0.7716592)
(0.9295513 0.62598842 0.77117962)
(0.93019331 0.62795669 0.77061981)
(0.93093842 0.63024151 0.76996601)
(0.93182749 0.63296711 0.76918042)
(0.9327386 0.63575971 0.76836902)
(0.93366307 0.6385926 0.76753932)
(0.93458432 0.64141428 0.76670623)
(0.93551922 0.6442768 0.76585418)
(0.93644631 0.6471144 0.76500291)
(0.9373759 0.64995819 0.76414281)
(0.93829268 0.65276158 0.76328832)
(0.93921459 0.65557909 0.7624228)
(0.94012362 0.65835601 0.76156318)
(0.94103909 0.66115099 0.7606914)
(0.94195127 0.66393471 0.75981653)
(0.94285959 0.66670507 0.75893921)
(0.94377798 0.6695044 0.75804609)
(0.94469172 0.6722883 0.75715119)
(0.94561827 0.67510998 0.75623751)
(0.94654429 0.67792851 0.75531793)
(0.947474 0.68075669 0.75438827)
(0.94839138 0.6835463 0.75346458)
(0.94931281 0.68634659 0.75253069)
(0.95022172 0.68910778 0.75160313)
(0.95113653 0.69188583 0.7506631)
(0.95204061 0.69463003 0.74972808)
(0.95294929 0.69738728 0.74878192)
(0.95385832 0.70014417 0.74782932)
(0.95476031 0.70287871 0.74687779)
(0.95567411 0.70564818 0.74590743)
(0.95658338 0.70840299 0.74493551)
(0.95750523 0.71119428 0.74394381)
(0.9584263 0.7139827 0.74294633)
(0.95935011 0.7167781 0.74193943)
(0.96026248 0.71953797 0.74093843)
(0.96117842 0.72230762 0.73992711)
(0.96208239 0.72504008 0.73892248)
(0.96299189 0.72778833 0.7379055)
(0.9638896 0.73049963 0.7368955)
(0.96479362 0.73322892 0.73587209)
(0.96569431 0.73594707 0.73484612)
(0.96659237 0.73865628 0.73381692)
(0.96749741 0.74138522 0.73277348)
(0.96839648 0.74409533 0.73173052)
(0.96930701 0.74683851 0.73066813)
(0.97021449 0.74957138 0.72960269)
(0.97113347 0.75233769 0.72851741)
(0.9720456 0.75508207 0.72743368)
(0.9729597 0.75783098 0.72634119)
(0.97386283 0.76054537 0.72525573)
(0.97477001 0.76327097 0.72415882)
(0.97566581 0.76596129 0.72306943)
(0.97655278 0.76862383 0.72198492)
(0.9773128 0.77090389 0.7210505)
(0.97804803 0.77310878 0.72014219)
(0.9783079 0.77517909 0.7192688)
(1.53 0.6480087 0.77790183)
(1.53 0.65038401 0.777174)
(1.53 0.652758 0.77644181)
(1.53 0.65534908 0.77563733)
(1.53 0.65835631 0.77469653)
(1.53 0.6618458 0.77359521)
(1.53 0.66589439 0.77230448)
(1.53 0.67059118 0.77078968)
(1.53 0.67603862 0.76900929)
(1.53 0.68235528 0.76691288)
(1.53 0.68967789 0.7644397)
(1.53 0.69816393 0.7615155)
(1.53 0.7079941 0.75804961)
(1.53 0.71937609 0.75393051)
(1.53 0.73254693 0.74902052)
(1.53 0.74777681 0.74314862)
(1.53 0.76590222 0.73588502)
(1.53 0.78424168 0.72822601)
(1.53 0.80246753 0.72030008)
(1.53 0.82057571 0.71210909)
(1.53 0.83856243 0.70365483)
(1.53 0.8564238 0.69493878)
(1.53 0.87415612 0.68596298)
(1.53 0.89175552 0.67672932)
(1.53 0.9084512 0.66766351)
(1.53 0.92268932 0.65969121)
(1.53 0.93481719 0.65272212)
(1.53 0.94515532 0.64664942)
(1.53 0.95397389 0.64137179)
(1.53 0.961501 0.6367951)
(1.53 0.9679293 0.63283348)
(1.53 0.97342169 0.62940937)
(1.53 0.97811657 0.62645358)
(1.53 0.9821313 0.62390482)
(1.53 0.98556548 0.62170893)
(1.53 0.98850387 0.61981839)
(1.53 0.99101871 0.61819202)
(1.53 0.99317139 0.61679351)
(3.0302391 0.55300027 0.80496991)
(3.0361979 0.55299991 0.80437708)
(3.0421691 0.55299997 0.80377781)
(3.048692 0.55299997 0.80311722)
(3.0555949 0.55299997 0.80241162)
(3.0625091 0.55299991 0.80169761)
(3.0694211 0.55299991 0.80097669)
(3.076333 0.55299991 0.80024838)
(3.0832419 0.55299991 0.79951298)
(3.0901561 0.55299991 0.79876947)
(3.0970621 0.55299991 0.79801899)
(3.1039791 0.55299997 0.79725951)
(3.1108849 0.55299997 0.79649317)
(3.117805 0.55300009 0.79571712)
(3.124711 0.55300009 0.79493427)
(3.1316359 0.55300009 0.79414082)
(3.138581 0.55300009 0.79333627)
(3.1455059 0.55299997 0.79252517)
(3.152503 0.55299997 0.79169673)
(3.159483 0.55299991 0.79086071)
(3.1665449 0.55299991 0.79000533)
(3.1735871 0.55299991 0.78914231)
(3.18063 0.55299997 0.7882691)
(3.1876831 0.55299997 0.78738451)
(3.1947179 0.55299991 0.78649181)
(3.201869 0.55299979 0.7855733)
(3.208976 0.55299991 0.78464937)
(3.216089 0.55299991 0.78371352)
(3.2232859 0.55299991 0.78275478)
(3.2304709 0.55299991 0.78178579)
(3.2376549 0.55299991 0.78080481)
(3.244936 0.55299991 0.77979791)
(3.2521579 0.55299991 0.77878648)
(3.2593861 0.55299991 0.7777611)
(3.266741 0.55299997 0.77670407)
(3.2741001 0.55300009 0.77563268)
(3.281446 0.55300021 0.77454901)
(3.28879 0.55300027 0.77345121)
(3.2962439 0.55300039 0.772322)
(3.3037779 0.55300027 0.77116531)
(3.311296 0.55300027 0.76999509)
(3.3187971 0.55300021 0.7688117)
(3.326293 0.55300009 0.7676127)
(3.3338339 0.55299997 0.76638991)
(3.3414519 0.55299997 0.76513731)
(3.349134 0.55299997 0.76385659)
(3.356868 0.55299997 0.76254869)
(3.364646 0.55300009 0.76121479)
(3.3724599 0.55300009 0.75985551)
(3.3803029 0.55300009 0.75847149)
(3.38817 0.55300009 0.75706333)
(3.3960559 0.55300009 0.75563133)
(3.403959 0.55300009 0.75417572)
(3.411876 0.55299997 0.75269669)
(3.4198041 0.55300009 0.75119418)
(3.427742 0.55300021 0.74966842)
(3.4357221 0.55300009 0.7481128)
(3.4436979 0.55299997 0.7465359)
(3.451685 0.55300009 0.7449345)
(3.459753 0.55299968 0.74329609)
(3.4679279 0.55299968 0.74161738)
(3.476156 0.55299997 0.73991269)
(3.4843891 0.55300021 0.738195)
(3.492662 0.55300027 0.73645931)
(3.501076 0.55300027 0.73468649)
(3.50949 0.55300009 0.73290789)
(3.51794 0.55300009 0.73111743)
(3.5251069 0.55300009 0.72959638)
(3.5312779 0.55300009 0.72828549)
(3.5365911 0.55300009 0.72715598)
(3.541167 0.55300009 0.72618282)
(3.5451081 0.55300009 0.7253446)
(3.548501 0.55300009 0.72462261)
(3.551424 0.55300009 0.72400069)
(3.5543461 0.55300009 0.72337878)
(3.5544651 0.55299997 0.72335333)
(3.5570221 0.55300027 0.7227397)
(3.5595081 0.55299997 0.72189081)
(3.5618091 0.55300009 0.72063202)
(3.563823 0.55299991 0.71895099)
(3.565604 0.55300009 0.71701348)
(0.74725658 0.61283588 -0.77264237)
(0.86998659 -0.1579314 -0.74656808)
(0.94337499 -0.1572659 -0.72965229)
(1.53 1.056523 -0.54052842)
(1.53 1.057732 -0.54248989)
(1.53 1.0579261 -0.5447861)
(1.53 0.55856442 -0.853396)
(1.53 0.56499422 -0.84941632)
(1.53 0.57240951 -0.84463799)
(1.53 0.58093989 -0.83888131)
(1.53 0.59072202 -0.83192158)
(1.53 0.5989632 -0.82574522)
(1.53 0.60594529 -0.82027662)
(1.53 0.61187029 -0.81545818)
(1.53 0.6169064 -0.81122899)
(1.53 0.62119317 -0.8075285)
(1.53 0.62485617 -0.80429089)
(1.53 0.62848377 -0.80101371)
(0.7776832 0.63837808 0.7648012)
(0.77959448 0.63994068 0.7644127)
(0.78157198 0.64155191 0.76400977)
(0.78352201 0.64313531 0.76361167)
(0.78546453 0.64470738 0.76321429)
(0.78740537 0.6462732 0.76281631)
(0.78941619 0.64789009 0.76240301)
(0.79135197 0.64944208 0.76200408)
(0.79330337 0.65100181 0.76160079)
(0.79527688 0.65257448 0.7611919)
(0.79726613 0.65415508 0.76077843)
(0.79920739 0.65569329 0.76037359)
(0.80114418 0.6572237 0.7599687)
(0.80314368 0.65879917 0.75954932)
(0.80511791 0.6603505 0.75913382)
(0.80708152 0.66188949 0.75871921)
(0.80904239 0.66342229 0.75830388)
(0.81107301 0.66500562 0.7578724)
(0.81303132 0.66652852 0.75745487)
(0.81500453 0.66805929 0.75703281)
(0.8169961 0.66960061 0.75660551)
(0.8190068 0.67115271 0.7561726)
(0.82096529 0.67266113 0.75574958)
(0.82292199 0.67416459 0.75532568)
(0.82493919 0.6757108 0.75488722)
(0.82693231 0.67723519 0.75445259)
(0.8289116 0.67874563 0.7540195)
(0.8308875 0.68024999 0.75358582)
(0.83293343 0.68180418 0.7531352)
(0.83490962 0.68330222 0.7526986)
(0.83688718 0.68479812 0.75226039)
(1.53 1.007145 -0.61358422)
(1.53 1.005053 -0.61497313)
(1.53 1.009449 -0.61204863)
(1.53 1.012133 -0.61025119)
(1.53 1.015258 -0.60814607)
(1.53 1.0188971 -0.60567939)
(1.53 1.022529 -0.60320091)
(0.92616159 0.61683249 0.77603137)
(0.92649752 0.61733788 0.77496707)
(0.92683607 0.6180101 0.7741195)
(0.92717481 0.61884677 0.7734338)
(1.53 0.64504981 0.780343)
(1.53 0.64631099 0.77880722)
(0.98618841 -0.1568777 -0.7184304)
(0.9787904 -0.1569448 -0.7210812)
(-0.56644028 0.058807369 -0.75838888)
(-0.56643403 0.05879214 -0.75839818)
(-0.56643462 0.05879366 -0.75839728)
(-0.56643522 0.058795162 -0.75839639)
(2.408314 0.55299968 0.84669262)
(2.4108109 0.55299979 0.8465873)
(2.4132681 0.55300021 0.84648192)
(2.415714 0.55300039 0.84637618)
(2.418155 0.55300039 0.84627032)
(2.420681 0.55300021 0.84616059)
(2.42311 0.55299997 0.84605533)
(2.425555 0.55299979 0.84594971)
(2.428026 0.55299962 0.84584349)
(2.4305141 0.5529995 0.84573722)
(2.43294 0.5529995 0.8456344)
(2.4353571 0.55299962 0.84553277)
(2.4378519 0.55299997 0.84542888)
(2.4403119 0.55300039 0.8453272)
(2.4427559 0.55300063 0.845227)
(2.4451959 0.55300027 0.8451274)
(2.4477201 0.55299968 0.84502387)
(2.450151 0.5529995 0.84492248)
(3.623373 0.55299991 0.61966431)
(3.628088 0.55299997 0.60888892)
(3.632658 0.55299991 0.59791678)
(3.637078 0.55299997 0.5868172)
(3.6413851 0.55299997 0.57555091)
(1.53 1.057925 0.54478568)
(1.536754 0.55300063 -0.85683048)
(1.543651 0.55300021 -0.85693961)
(1.5505919 0.55299997 -0.85704643)
(1.557573 0.55299997 -0.8571505)
(1.564641 0.55300009 -0.85725272)
(1.571857 0.55300021 -0.85735381)
(1.5793 0.55300009 -0.85745478)
(1.587069 0.55300009 -0.8575564)
(1.595282 0.55300009 -0.8576597)
(1.604087 0.55300021 -0.85776567)
(1.613655 0.55300021 -0.85787541)
(1.6242 0.55300021 -0.85798973)
(1.634836 0.55300021 -0.85809779)
(1.645403 0.55300021 -0.85819829)
(1.6559711 0.55300027 -0.8582918)
(1.6665519 0.55300027 -0.85837829)
(1.677631 0.55300027 -0.8584615)
(1.68884 0.55300027 -0.85853791)
(1.699978 0.55300027 -0.85860592)
(1.711049 0.55300027 -0.85866588)
(1.72205 0.55300039 -0.85871798)
(1.732987 0.55300039 -0.85876232)
(1.743856 0.55300039 -0.85879892)
(1.75466 0.55300039 -0.85882801)
(1.765401 0.55300039 -0.8588497)
(1.776077 0.55300039 -0.85886413)
(1.786692 0.55300039 -0.8588714)
(1.797246 0.55300027 -0.8588717)
(1.807737 0.55300027 -0.8588652)
(1.818169 0.55300027 -0.85885179)
(1.8285429 0.55300027 -0.85883182)
(1.83886 0.55300027 -0.85880518)
(1.849118 0.55300027 -0.85877222)
(1.859318 0.55300027 -0.85873282)
(1.869462 0.55300027 -0.85868722)
(1.87955 0.55300027 -0.85863549)
(1.8895839 0.55300027 -0.85857773)
(1.899564 0.55300021 -0.85851401)
(1.9094909 0.55300021 -0.85844439)
(1.919365 0.55300009 -0.85836911)
(1.929188 0.55300009 -0.85828799)
(1.938961 0.55299997 -0.85820138)
(1.948686 0.55299997 -0.85810918)
(1.958358 0.55299997 -0.8580116)
(1.96798 0.55299997 -0.85790861)
(1.977554 0.55299997 -0.8578003)
(1.98708 0.55299997 -0.85768682)
(1.9965611 0.55300009 -0.8575682)
(2.0059929 0.55300009 -0.85744441)
(2.015378 0.55300009 -0.85731572)
(2.02472 0.55300009 -0.85718209)
(2.0340159 0.55300009 -0.8570435)
(2.0432661 0.55299997 -0.85690022)
(2.0524759 0.55299997 -0.85675198)
(2.0616391 0.55299997 -0.85659921)
(2.070761 0.55299991 -0.85644168)
(2.0798399 0.55299991 -0.85627961)
(2.0888779 0.55299979 -0.85611302)
(2.0978739 0.55299979 -0.85594177)
(2.1068299 0.55299968 -0.85576618)
(2.1157451 0.55299968 -0.85558629)
(2.1246221 0.55299968 -0.85540187)
(2.1334579 0.55299968 -0.85521322)
(2.1422601 0.55299962 -0.85502023)
(2.1510191 0.55299962 -0.85482299)
(2.1597421 0.55299962 -0.85462159)
(2.1684301 0.55299962 -0.85441601)
(2.177079 0.55299962 -0.85420638)
(2.1856921 0.55299962 -0.85399258)
(2.194273 0.55299962 -0.85377479)
(2.2028151 0.55299962 -0.85355288)
(2.2113221 0.55299962 -0.85332721)
(2.2197959 0.55299962 -0.85309738)
(2.2282391 0.55299968 -0.85286361)
(2.236645 0.55299968 -0.85262609)
(2.2450171 0.55299968 -0.85238469)
(2.2533569 0.55299968 -0.85213941)
(2.261667 0.55299968 -0.85189033)
(2.269949 0.55299979 -0.8516373)
(2.2781971 0.55299979 -0.85138059)
(2.286413 0.55299979 -0.85112017)
(2.294266 0.55299979 -0.85086691)
(2.3015511 0.55299991 -0.85062808)
(2.308763 0.55299991 -0.85038799)
(2.3159549 0.55299991 -0.85014492)
(2.3231161 0.55299997 -0.84989917)
(2.3302541 0.55299997 -0.84965068)
(2.3373671 0.55299997 -0.84939951)
(2.3438311 0.55299997 -0.849168)
(2.3495779 0.55299997 -0.84895968)
(2.354727 0.55299997 -0.8487711)
(2.3594811 0.55300009 -0.8485952)
(2.363821 0.55300009 -0.8484332)
(2.36782 0.55300009 -0.84828281)
(2.3715379 0.55299997 -0.84814191)
(2.375015 0.55299991 -0.84800929)
(2.3783109 0.55299979 -0.84788269)
(2.3814399 0.55299979 -0.84776181)
(2.3844321 0.55299979 -0.84764552)
(2.3873451 0.55299991 -0.84753162)
(2.390137 0.55300009 -0.84742182)
(2.3928511 0.55300027 -0.8473146)
(2.3955071 0.55300039 -0.8472091)
(2.398103 0.55300063 -0.8471055)
(2.400697 0.55300063 -0.84700149)
(2.4032979 0.55300039 -0.84689683)
(2.405899 0.55299997 -0.8467918)
(1.53 1.005057 0.61497051)
(1.53 1.007282 0.61349291)
(1.53 1.009505 0.6120109)
(1.53 1.0120831 0.61028433)
(1.53 1.015074 0.60827053)
(1.53 1.018531 0.60592872)
(1.53 1.000398 -0.61520052)
(3.646461 0.55300009 0.56168729)
(3.651324 0.55299997 0.54774809)
(3.655992 0.55299991 0.53370643)
(3.6604741 0.55299991 0.51954502)
(3.664762 0.55299991 0.50531501)
(3.668865 0.55299997 0.49100551)
(3.6727901 0.55299997 0.4766131)
(3.6765289 0.55300009 0.46218979)
(3.6801169 0.55300009 0.4476184)
(3.683517 0.55299997 0.43307269)
(3.686754 0.55299991 0.41847011)
(3.6898389 0.55299991 0.40378591)
(3.692765 0.55299997 0.38907)
(3.6955421 0.55299997 0.37430549)
(3.6981671 0.55299997 0.3595286)
(3.7006459 0.55299979 0.3447324)
(3.702991 0.55299968 0.32986569)
(3.705195 0.55299968 0.3150098)
(3.7072639 0.55299968 0.3001481)
(3.7092149 0.55299979 0.28518149)
(3.7110331 0.55299997 0.27024901)
(3.7127321 0.55299997 0.25527471)
(3.7143121 0.55299997 0.24027459)
(3.715776 0.55299991 0.2252574)
(3.7171259 0.55299979 0.2102358)
(3.71837 0.55299979 0.1951575)
(3.719507 0.55299979 0.1800538)
(3.720535 0.55299979 0.164979)
(3.721463 0.55299979 0.14988279)
(3.722295 0.55299979 0.1346897)
(3.7230251 0.55299968 0.1195692)
(3.72366 0.55299968 0.1044542)
(3.7242041 0.55299968 0.089262187)
(3.724658 0.55299979 0.074040674)
(3.7250209 0.55299979 0.058906779)
(3.7252979 0.55299991 0.043756209)
(3.725493 0.55299997 0.02850781)
(3.7256031 0.55300009 0.0132695)
(2.4082389 0.55299968 -0.84669572)
(2.4106569 0.55299979 -0.8465938)
(2.413038 0.55300021 -0.84649181)
(2.4154069 0.55300039 -0.84638947)