/*--------------------------------*- C++ -*----------------------------------*\
| =========                 |                                                 |
| \\      /  F ield         | OpenFOAM: The Open Source CFD Toolbox           |
|  \\    /   O peration     | Version:  v1812                                 |
|   \\  /    A nd           | Web:      www.OpenFOAM.com                      |
|    \\/     M anipulation  |                                                 |
\*---------------------------------------------------------------------------*/
FoamFile
{
    version     2.0;
    format      ascii;
    class       extendedFeatureEdgeMesh;
    location    "constant/extendedFeatureEdgeMesh";
    object      drivaer_combined.extendedFeatureEdgeMesh;
}
// * * * * * * * * * * * * * * * * * * * * * * * * * * * * * * * * * * * * * //

// points

13192
(
(-0.7753337 0.037831251 0.29701379)
(-0.72954208 0.361031 -0.2192176)
(1.498474 0.51921731 -0.8691107)
(-0.73820639 0.3639589 -0.045133822)
(-0.71493852 0.35239369 0.33909449)
(-0.71501738 0.35249379 0.3365944)
(-0.7385233 0.36414149 -0.0052070948)
(-0.73847753 0.3644641 -0.035594359)
(-0.73854488 0.36419359 0.005222938)
(-0.72239751 0.35698771 -0.27897349)
(-0.72237718 0.35856199 -0.28178781)
(0.75322902 0.61055398 0.76847529)
(1.468502 0.50310123 -0.87516052)
(1.501248 0.50396758 -0.8606202)
(-0.77430439 0.061679929 0.27849221)
(-0.77241731 0.05974235 0.27761009)
(3.725493 0.55299997 -0.028506029)
(3.724658 0.55299968 -0.074033007)
(3.723026 0.55299968 -0.1195522)
(3.7205369 0.55299997 -0.1649455)
(3.6559851 0.55299997 -0.5337286)
(3.6413851 0.55299997 -0.57555091)
(1.529999 1.086201 -0.01993631)
(1.53 1.085956 -0.0598097)
(1.53 1.085449 -0.099679463)
(1.53 1.056269 -0.52828389)
(1.53 1.055475 -0.53382778)
(1.53 0.99525219 0.61543632)
(1.53 0.99691421 0.6147328)
(1.53 1.000398 0.61520082)
(-0.77691048 0.062336851 0.27912101)
(-0.7718569 0.057030682 0.27692229)
(-0.77035928 0.041469101 0.2921575)
(1.53 1.022529 0.60320097)
(1.53 1.031921 0.59603387)
(1.53 1.036954 0.59137517)
(1.53 1.046878 0.5790568)
(1.529999 1.055483 0.53377461)
(1.530001 1.085094 0.1195401)
(1.53 1.08611 0.039849609)
(1.53 1.086201 0.019925071)
(2.4525819 0.55299997 0.8448174)
(2.4603729 0.55300027 0.84447181)
(2.4683981 0.55299968 0.84411138)
(2.4809871 0.55299968 0.8435356)
(2.5091391 0.55300009 0.84220338)
(2.5222631 0.55300021 0.84156138)
(2.535326 0.55300027 0.84090883)
(2.561276 0.55300039 0.83957207)
(2.5677381 0.55300039 0.83923078)
(2.587765 0.55300039 0.83815169)
(2.5951171 0.55300039 0.83774728)
(2.6098039 0.55300039 0.8369261)
(2.624455 0.55300027 0.83608907)
(2.639066 0.55300021 0.83523661)
(2.6536491 0.55300009 0.83436769)
(2.6681941 0.55299997 0.83348298)
(2.7044029 0.55299968 0.83120149)
(2.718828 0.55299968 0.83026057)
(2.7762129 0.55299997 0.82633352)
(2.790482 0.55299997 0.82531029)
(2.7976079 0.55299997 0.82479221)
(2.8118269 0.55299997 0.82374418)
(2.8260181 0.55299997 0.82267892)
(2.8401799 0.55300009 0.82159638)
(2.8613689 0.55300009 0.81993967)
(2.8754549 0.55300009 0.8188132)
(2.9105539 0.55299997 0.81591642)
(2.938494 0.55299997 0.81351459)
(3.568959 0.55299997 0.71273762)
(3.573 0.55299938 0.70733958)
(3.5781701 0.55299997 0.70015413)
(3.5884211 0.55299997 0.68489069)
(3.6130891 0.55299997 0.64135343)
(1.53 0.55300009 0.85672122)
(1.543732 0.55300063 0.85694069)
(1.550632 0.55300009 0.8570469)
(1.5645 0.55299968 0.85725093)
(1.586193 0.55300009 0.85754508)
(1.610978 0.55299997 0.85784543)
(1.620454 0.55299997 0.85794997)
(1.641488 0.55299997 0.85816199)
(1.706246 0.55299997 0.85864103)
(1.739082 0.55299997 0.8587839)
(1.894877 0.55299997 0.85854471)
(2.0477779 0.55299968 0.85682839)
(2.0660551 0.55299968 0.85652357)
(2.137517 0.55299997 0.85512459)
(2.163667 0.55299997 0.85452908)
(2.189486 0.55299997 0.85389662)
(2.2065229 0.55299997 0.85345489)
(2.223417 0.55299997 0.85299748)
(2.2318161 0.55299997 0.85276288)
(2.256814 0.55299997 0.85203618)
(2.273315 0.55299997 0.85153288)
(2.2897 0.55299997 0.85101461)
(2.2975941 0.55299997 0.85075808)
(2.3120611 0.55299997 0.85027683)
(2.3192141 0.55299997 0.8500334)
(2.3334441 0.55299997 0.84953839)
(2.347152 0.55300009 0.84904778)
(2.3746231 0.55299968 0.84802431)
(2.3780539 0.55299968 0.84789258)
(2.384366 0.55299997 0.84764791)
(2.3901701 0.55300039 0.84742028)
(2.395653 0.55300081 0.84720302)
(2.398284 0.55300093 0.84709799)
(2.4034181 0.55300051 0.84689188)
(1.53 0.64413351 0.78627229)
(1.53 0.64430958 0.78426051)
(1.53 0.6480087 0.77790183)
(3.048692 0.55299997 0.80311722)
(3.1108849 0.55299997 0.79649317)
(3.124711 0.55300009 0.79493427)
(3.138581 0.55300009 0.79333627)
(3.152503 0.55299997 0.79169673)
(3.266741 0.55299997 0.77670407)
(3.2741001 0.55300009 0.77563268)
(3.28879 0.55300027 0.77345121)
(3.3037779 0.55300027 0.77116531)
(3.326293 0.55300009 0.7676127)
(3.3338339 0.55299997 0.76638991)
(3.349134 0.55299997 0.76385659)
(3.364646 0.55300009 0.76121479)
(3.3803029 0.55300009 0.75847149)
(3.38817 0.55300009 0.75706333)
(3.4198041 0.55300009 0.75119418)
(3.427742 0.55300021 0.74966842)
(3.4436979 0.55299997 0.7465359)
(3.459753 0.55299968 0.74329609)
(3.476156 0.55299997 0.73991269)
(3.492662 0.55300027 0.73645931)
(3.501076 0.55300027 0.73468649)
(3.5251069 0.55300009 0.72959638)
(3.541167 0.55300009 0.72618282)
(3.551424 0.55300009 0.72400069)
(3.5543461 0.55300009 0.72337878)
(3.5570221 0.55300027 0.7227397)
(3.565604 0.55300009 0.71701348)
(0.87832868 -0.1578557 -0.74476743)
(0.88665622 -0.1577802 -0.74290031)
(0.89621651 -0.15769351 -0.74073398)
(0.90701538 -0.1575956 -0.73825771)
(0.91737467 -0.1575017 -0.73585451)
(0.92735291 -0.1574112 -0.73351407)
(0.93598813 -0.1573329 -0.73146778)
(1.53 0.55299997 -0.85672128)
(1.53 0.57240951 -0.84463799)
(1.53 0.58093989 -0.83888131)
(1.53 0.61187029 -0.81545818)
(1.53 0.62848377 -0.80101371)
(1.53 1.012133 -0.61025119)
(1.53 1.0188971 -0.60567939)
(1.53 0.64631099 0.77880722)
(0.98216391 -0.1569142 -0.71931452)
(0.984101 -0.15689661 -0.71832848)
(0.9813832 -0.1569213 -0.71974701)
(2.415714 0.55300039 0.84637618)
(2.42311 0.55299997 0.84605533)
(2.4378519 0.55299997 0.84542888)
(2.4427559 0.55300063 0.845227)
(2.4477201 0.55299968 0.84502387)
(3.628088 0.55299997 0.60888892)
(3.637078 0.55299997 0.5868172)
(3.6413851 0.55299997 0.57555091)
(1.536754 0.55300063 -0.85683048)
(1.564641 0.55300009 -0.85725272)
(1.5793 0.55300009 -0.85745478)
(1.595282 0.55300009 -0.8576597)
(1.604087 0.55300021 -0.85776567)
(1.634836 0.55300021 -0.85809779)
(1.645403 0.55300021 -0.85819829)
(1.677631 0.55300027 -0.8584615)
(1.699978 0.55300027 -0.85860592)
(1.72205 0.55300039 -0.85871798)
(1.765401 0.55300039 -0.8588497)
(1.807737 0.55300027 -0.8588652)
(1.83886 0.55300027 -0.85880518)
(1.859318 0.55300027 -0.85873282)
(1.8895839 0.55300027 -0.85857773)
(1.919365 0.55300009 -0.85836911)
(1.948686 0.55299997 -0.85810918)
(1.977554 0.55299997 -0.8578003)
(1.9965611 0.55300009 -0.8575682)
(2.02472 0.55300009 -0.85718209)
(2.0524759 0.55299997 -0.85675198)
(2.0616391 0.55299997 -0.85659921)
(2.1068299 0.55299968 -0.85576618)
(2.1334579 0.55299968 -0.85521322)
(2.2282391 0.55299968 -0.85286361)
(2.2450171 0.55299968 -0.85238469)
(2.3231161 0.55299997 -0.84989917)
(2.3373671 0.55299997 -0.84939951)
(2.3495779 0.55299997 -0.84895968)
(2.363821 0.55300009 -0.8484332)
(2.390137 0.55300009 -0.84742182)
(2.3928511 0.55300027 -0.8473146)
(2.400697 0.55300063 -0.84700149)
(2.4032979 0.55300039 -0.84689683)
(1.53 1.009505 0.6120109)
(1.53 1.002757 -0.61572772)
(3.651324 0.55299997 0.54774809)
(3.668865 0.55299997 0.49100551)
(3.683517 0.55299997 0.43307269)
(3.692765 0.55299997 0.38907)
(3.6981671 0.55299997 0.3595286)
(3.702991 0.55299968 0.32986569)
(3.7072639 0.55299968 0.3001481)
(3.7110331 0.55299997 0.27024901)
(3.7143121 0.55299997 0.24027459)
(3.7230251 0.55299968 0.1195692)
(3.7242041 0.55299968 0.089262187)
(3.725493 0.55299997 0.02850781)
(2.4154069 0.55300039 -0.84638947)
(2.4225709 0.55300009 -0.84607869)
(2.4273341 0.55299968 -0.84587318)
(2.439235 0.55300027 -0.8453716)
(2.4416029 0.55300051 -0.84527421)
(2.4525819 0.55299997 -0.8448174)
(3.030479 0.55300027 -0.80494612)
(3.0484159 0.55299997 -0.80314529)
(3.055233 0.55300009 -0.80244869)
(3.068994 0.55300021 -0.80102128)
(3.075892 0.55300027 -0.80029488)
(3.0896859 0.55300027 -0.79882002)
(3.0965841 0.55300027 -0.79807109)
(3.110451 0.55300009 -0.79654151)
(3.1523089 0.55299968 -0.79171997)
(3.159292 0.55299968 -0.79088378)
(3.1804099 0.55300009 -0.78829652)
(3.215924 0.55299997 -0.78373528)
(3.2301879 0.55299997 -0.78182417)
(3.244647 0.55300009 -0.77983809)
(3.26649 0.55300027 -0.77674031)
(3.281146 0.55300027 -0.77459341)
(3.296057 0.55300027 -0.77235061)
(3.3109081 0.55300021 -0.77005589)
(3.3259909 0.55300009 -0.76766127)
(3.380033 0.55299997 -0.75851959)
(3.3956981 0.55300009 -0.75569677)
(3.4035921 0.55300021 -0.75424379)
(3.419549 0.55300027 -0.75124288)
(3.4436979 0.55299997 -0.7465359)
(3.4594259 0.55299968 -0.74336278)
(3.475395 0.55300009 -0.740071)
(3.507802 0.55299997 -0.73326522)
(3.523618 0.55300009 -0.72991258)
(3.5484681 0.55300009 -0.72462958)
(3.5543461 0.55300009 -0.72337878)
(1.53 0.99525207 -0.61543632)
(1.53 0.99867958 -0.61465073)
(1.53 0.64631099 -0.77880722)
(1.53 0.64504981 -0.78034288)
(1.53 0.6480087 -0.77790183)
(1.53 1.055317 0.53857648)
(1.53 1.056687 -0.5525226)
(1.53 1.055194 -0.5594123)
(1.53 1.047606 -0.57787597)
(1.53 1.027213 -0.59982902)
(1.53 1.038151 -0.59015071)
(1.53 1.055317 -0.53857648)
(0.81764388 0.74612242 -0.67776167)
(1.53 0.64430958 -0.78426051)
(1.53 0.64413351 -0.78627229)
(1.53 0.56388438 0.85011393)
(1.53 0.6099112 0.81706989)
(1.53 0.62848377 0.80101371)
(1.53 0.64058948 -0.79077542)
(3.6370909 0.55299997 -0.58678162)
(3.6280091 0.55299997 -0.60907412)
(1.53 1.002756 0.6157279)
(2.4575961 0.55300027 -0.84459537)
(2.4626651 0.55299997 -0.84436941)
(2.4867511 0.55299997 -0.84326768)
(2.495769 0.55300009 -0.84284371)
(2.5073071 0.55300009 -0.84229201)
(2.526341 0.55300021 -0.84135908)
(2.5452361 0.55300027 -0.84040469)
(2.557862 0.55300039 -0.83975101)
(2.5706589 0.55300039 -0.83907539)
(2.584193 0.55300039 -0.83834648)
(2.5988209 0.55300039 -0.83754188)
(2.6134069 0.55300039 -0.8367219)
(2.6279669 0.55300027 -0.83588582)
(2.6424921 0.55300021 -0.83503407)
(2.6569741 0.55300009 -0.834167)
(2.6714311 0.55299997 -0.83328372)
(2.700232 0.55299968 -0.83147007)
(2.7074151 0.55299968 -0.83100659)
(2.7787781 0.55299997 -0.82615089)
(2.8000331 0.55299997 -0.82461482)
(2.821219 0.55299997 -0.82304138)
(2.8423419 0.55300009 -0.82142937)
(2.856384 0.55300009 -0.82033348)
(2.8703971 0.55300009 -0.81922013)
(2.8983381 0.55300009 -0.81693947)
(2.912266 0.55299997 -0.8157717)
(2.926163 0.55299997 -0.81458539)
(2.933104 0.55299997 -0.81398481)
(3.0097029 0.55299997 -0.80697638)
(3.014683 0.55299997 -0.80649507)
(1.010676 0.80084282 0.7095629)
(1.012399 0.80194801 0.70912808)
(1.01415 0.80306911 0.70868582)
(1.015864 0.8041653 0.70825207)
(3.557029 0.55299997 -0.72273779)
(3.561806 0.55300009 -0.72063398)
(3.6075139 0.55299997 -0.65216208)
(3.5924971 0.55299997 -0.67840737)
(3.588321 0.55299997 -0.68504697)
(3.5811901 0.55299997 -0.69580388)
(3.5781579 0.55299997 -0.70017159)
(3.569 0.55299997 -0.71268421)
(1.53 0.64058948 0.79077542)
(2.8615179 0.96595907 -0.25103271)
(2.864397 0.96753258 -0.2156281)
(2.8640161 0.9673245 -0.22073729)
(2.8717949 0.97157478 0.002495121)
(2.864397 0.96753258 0.21562859)
(2.845602 0.95755619 0.37667111)
(2.846457 0.95798361 0.3716878)
(2.845602 0.95755619 -0.37667179)
(2.8447261 0.95712107 -0.38164249)
(2.8640161 0.9673245 0.2207371)
(2.860826 0.96557999 0.25862521)
(2.8615179 0.96595907 0.2510322)
(2.860826 0.96557999 -0.25862569)
(2.8596151 0.96491718 0.2712189)
(2.8591011 0.96463668 0.27631509)
(2.8596151 0.96491718 -0.2712197)
(2.8560569 0.96298528 -0.30403179)
(2.854528 0.962165 -0.31656519)
(2.8528941 0.96129769 -0.32910419)
(2.8518579 0.96075308 0.33664459)
(2.8528941 0.96129781 0.32910311)
(2.8554621 0.96266508 0.30900741)
(2.4062779 0.92588192 0.64348137)
(2.4161501 0.9237023 0.64427119)
(2.4211161 0.92259133 0.64467198)
(2.503185 0.86886239 0.66940022)
(2.4383719 0.9186517 0.64608407)
(2.836241 0.95306379 -0.4238283)
(2.8327911 0.95148718 0.43850651)
(2.8378839 0.9538281 -0.41639429)
(2.4062631 0.92588508 -0.6434803)
(2.870409 0.97081149 -0.096444972)
(2.870255 0.97072721 -0.1015603)
(2.8706911 0.97096509 -0.086294301)
(2.8700931 0.97063887 -0.1066371)
(2.8698361 0.97049832 0.1142144)
(2.8695569 0.97034621 0.1218463)
(2.8700931 0.97063881 0.1066371)
(2.8339679 0.95202088 0.4336333)
(2.870255 0.97072709 0.1015602)
(2.870755 0.97100037 0.083793238)
(2.870553 0.97088999 0.091409206)
(2.8351319 0.95255297 0.4286783)
(2.8695569 0.97034621 -0.1218462)
(2.868119 0.96956158 -0.15485109)
(2.8678639 0.96942282 -0.15990131)
(2.8684859 0.96976137 -0.1472334)
(2.8674631 0.96920383 -0.1675119)
(2.866441 0.96864682 -0.1852448)
(2.8661261 0.96847528 -0.19031329)
(2.8684859 0.96976137 0.14723261)
(2.868119 0.96956158 0.1548505)
(2.8678639 0.96942282 0.15990099)
(2.8674631 0.96920383 0.16751181)
(2.866441 0.96864682 0.18524531)
(2.836242 0.95306408 0.42382571)
(2.8716819 0.97150898 -0.02793457)
(2.8658011 0.96829808 -0.19538219)
(2.8687201 0.96988899 -0.14212281)
(2.8717949 0.97157478 -0.002495215)
(2.8438151 0.95667201 -0.38667241)
(2.871736 0.97153908 0.020307969)
(2.871762 0.9715541 0.01527302)
(2.4837251 0.90586728 -0.65093893)
(2.510792 0.85427958 -0.67627567)
(2.493458 0.88741159 -0.66033071)
(2.3318541 0.94116372 -0.63779938)
(2.827076 0.94894367 -0.46045849)
(2.3368559 0.94019628 -0.63816732)
(2.341815 0.93922919 -0.63853389)
(2.3716061 0.93324453 0.64077729)
(2.5118811 0.85218507 0.67724508)
(2.3567231 0.93627208 0.63964778)
(2.361675 0.93527317 0.64002162)
(2.388942 0.92961878 0.64211619)
(2.5086441 0.85840273 0.67435431)
(2.4826231 0.90794992 0.64985561)
(2.4869599 0.8997463 0.65409487)
(2.492379 0.88946432 0.65930438)
(2.4956181 0.88330269 0.66237128)
(2.4988639 0.87711751 -0.66540909)
(2.4407959 0.91808808 -0.646285)
(2.504292 0.86674458 -0.67041248)
(2.50212 0.87089688 -0.6684233)
(2.4752779 0.90978938 0.64921337)
(2.467917 0.91160703 0.6485765)
(2.4629641 0.91281557 0.6481517)
(2.560262 0.8729775 -0.6642471)
(2.5670021 0.86061078 -0.67010897)
(2.5162239 0.84382337 -0.68107003)
(2.2745881 0.95168489 -0.63371658)
(2.242136 0.95721871 0.63150519)
(2.5591691 0.87497818 0.66328359)
(2.5636351 0.86679637 -0.66719699)
(2.2920539 0.94858128 0.63493699)
(2.5183971 0.83963299 0.68295991)
(2.512979 0.85007429 -0.67821741)
(2.2970359 0.9476794 0.63528907)
(2.3268721 0.94211942 0.63743478)
(2.3318839 0.94115812 0.63780159)
(2.480212 0.90855581 -0.64964449)
(2.4826231 0.90794992 -0.64985561)
(2.3020091 0.94677168 -0.63564217)
(2.814517 0.94363737 -0.5005998)
(2.2271371 0.95967698 -0.63050771)
(2.2096281 0.96246958 0.629363)
(2.204623 0.96325278 0.6290397)
(2.576015 0.84398049 0.67774171)
(2.2046111 0.96325469 -0.62903887)
(2.2321291 0.95886558 -0.63083798)
(2.572624 0.85024941 0.67489791)
(2.8169219 0.9446277 -0.49361429)
(2.5512891 0.88935632 0.65623438)
(2.8102951 0.94192177 0.51220059)
(2.5523911 0.88734949 -0.65723151)
(2.5827651 0.83145601 0.68330342)
(2.5326109 0.81223983 0.69487453)
(2.552433 0.88727278 0.6572696)
(2.182081 0.96669829 0.62760562)
(2.8128591 0.94296038 -0.50525218)
(2.5805011 0.83566159 0.68145353)
(2.5293081 0.8186053 0.69217318)
(2.5249469 0.82701069 -0.68854409)
(2.1494851 0.97144687 0.62559682)
(2.5883689 0.8210156 0.68781888)
(2.538084 0.80169308 0.69926149)
(2.558569 0.88722092 0.65695608)
(2.5512891 0.88935632 -0.65623438)
(2.535887 0.80592698 -0.69751358)
(2.5536759 0.88865978 0.65647)
(2.582737 0.83150768 -0.68328083)
(2.535887 0.8059271 0.69751358)
(2.1670339 0.9689244 -0.62666857)
(2.12942 0.97423458 0.62439972)
(2.8058131 0.94012809 0.52368897)
(2.807626 0.9408505 -0.51913708)
(2.580385 0.8806088 -0.65917921)
(2.538084 0.80169308 -0.69926149)
(2.5906329 0.81678689 0.68961692)
(2.541389 0.79532301 0.70185822)
(2.144448 0.97215641 0.62529337)
(2.563391 0.88578731 0.65743947)
(2.5997109 0.87446702 -0.66122979)
(2.5928271 0.81268221 -0.69134527)
(2.6068211 0.87213582 0.66200471)
(2.611655 0.87052798 0.66253799)
(2.121871 0.97525698 0.62395728)
(2.5924571 0.87680447 0.66045099)
(2.5435829 0.79109448 0.70355988)
(2.5707121 0.88358098 -0.65818202)
(2.575557 0.88210028 -0.65867919)
(2.101783 0.97790718 0.62280202)
(2.616478 0.86890531 -0.66307539)
(2.1017251 0.97791457 -0.62279868)
(2.1168351 0.97593099 0.62366462)
(2.6164119 0.86892748 0.663068)
(2.0841651 0.98014718 0.62181592)
(2.605212 0.78939658 0.70083791)
(2.6592519 0.85364461 0.66808492)
(2.800046 0.9378705 -0.53732032)
(2.6379499 0.86144459 -0.66553468)
(2.0917571 0.97919148 0.62223768)
(2.649807 0.85715342 0.66694051)
(2.5502219 0.77830118 -0.70860279)
(2.6006949 0.79791188 -0.69742769)
(2.084162 0.9801476 -0.62181568)
(2.6426539 0.85975718 0.66608828)
(2.63555 0.86229807 0.66525429)
(2.6307881 0.8639769 0.66470212)
(2.0640841 0.98260421 0.6207239)
(2.6687441 0.85003591 -0.66925699)
(2.6545789 0.85539079 -0.66751599)
(2.5568919 0.7654466 -0.71351129)
(2.0766101 0.98108357 0.62140101)
(2.6074741 0.78512168 0.70252359)
(2.696897 0.83884579 -0.67285502)
(2.6921799 0.84077102 -0.67224032)
(2.6130421 0.77457082 -0.70660919)
(2.0438819 0.98497158 -0.61966127)
(2.795893 0.93631089 0.54631633)
(2.795893 0.93631089 -0.54631633)
(2.687566 0.84263468 -0.67164338)
(2.7132239 0.83203107 -0.6750142)
(2.0262451 0.9869523 -0.61876422)
(2.6152849 0.7703107 -0.70822883)
(2.036381 0.98582429 0.61927599)
(2.041347 0.98526162 0.61953038)
(2.614182 0.77240658 0.70743412)
(2.703872 0.83596212 0.67377198)
(2.5758231 0.72896308 0.72659338)
(2.7777741 0.80345559 0.68366349)
(2.773181 0.80552608 0.68306643)
(2.7685649 0.8076092 0.68245977)
(2.7593739 0.81175297 0.68123728)
(2.763973 0.80968088 0.68185109)
(2.8353951 0.9254421 0.54758662)
(2.7571051 0.81277353 -0.68093318)
(2.752466 0.81485558 -0.6803093)
(2.7478859 0.81690419 -0.6796912)
(2.7524641 0.81485659 0.680309)
(2.745518 0.81795979 0.67937112)
(1.998507 0.98990232 -0.61741358)
(2.736351 0.82202101 -0.67812991)
(2.720156 0.82907128 -0.67594302)
(2.6208949 0.75962847 -0.71221459)
(2.8099229 0.7887311 0.68779027)
(2.79387 0.79617399 -0.68572432)
(2.8596909 0.91849148 -0.54827929)
(2.8669741 0.91637868 -0.54844922)
(2.8053341 0.79087692 0.687199)
(2.8400929 0.92411017 -0.54773623)
(2.7801361 0.8023932 -0.68396741)
(2.5758231 0.72896308 -0.72659338)
(2.7961421 0.79513162 0.68601608)
(2.8400929 0.92411017 0.54773623)
(2.828481 0.92738777 -0.54736459)
(1.990922 0.99067318 -0.61705768)
(2.6253829 0.75105298 -0.71533698)
(2.9546859 0.89003438 0.5492515)
(2.9303441 0.89749318 0.54925579)
(2.9255159 0.89896029 0.549236)
(2.8372431 0.77567482 0.69131082)
(2.8418181 0.77344412 0.69189841)
(2.8259051 0.7811501 -0.68985111)
(2.9182129 0.90117139 -0.54919308)
(2.635498 0.7316305 0.7221573)
(2.8099411 0.78872299 -0.68779248)
(2.5803111 0.72031379 -0.72951359)
(1.968197 0.99288863 0.61602771)
(2.9182129 0.90117168 0.54919308)
(2.9133439 0.90264028 0.54915589)
(2.9084721 0.90410519 0.5491116)
(2.5803111 0.72031379 0.72951359)
(2.7984979 0.79404658 -0.68631899)
(2.884088 0.91136342 -0.54878467)
(1.915146 0.99748868 -0.61384898)
(1.927812 0.99646538 0.61433911)
(1.932863 0.99604398 0.61453992)
(1.937906 0.99561578 0.61474341)
(2.8494251 0.76930171 0.69304019)
(2.5836959 0.71379077 -0.7316708)
(1.937952 0.9956122 -0.61474502)
(2.9546859 0.89003438 -0.5492515)
(2.937675 0.89525741 -0.54927278)
(2.9303451 0.897493 -0.54925579)
(2.9255171 0.89896011 -0.549236)
(1.942956 0.99517989 -0.61494988)
(1.948048 0.99473238 -0.61516148)
(1.905044 0.99826932 -0.61347288)
(1.920218 0.99708462 0.614043)
(2.646677 0.71000332 0.72934681)
(2.587069 0.70729017 -0.73378199)
(2.587069 0.70729017 0.73378199)
(3.056556 0.85790509 0.54738522)
(2.836879 0.74117672 -0.70513248)
(2.6489179 0.70564967 -0.73074299)
(2.8428371 0.74516678 0.7031551)
(3.0396211 0.86333603 0.54789412)
(3.0347559 0.86488998 0.54802603)
(2.850543 0.75069678 -0.70042622)
(1.894935 0.99901837 0.61310971)
(1.899992 0.99864757 0.61328977)
(3.003257 0.87488317 -0.54872382)
(2.8540249 0.75380027 -0.69894308)
(1.892415 0.99920011 -0.61302131)
(2.846776 0.74787807 -0.70180953)
(1.833838 0.76616538 0.73561978)
(1.834576 0.77083158 0.73370868)
(1.835299 0.77539867 0.73181868)
(1.836038 0.78005159 0.72987312)
(1.836761 0.78460139 0.72795099)
(1.832371 0.75687718 0.73936433)
(1.831638 0.75222743 0.74120909)
(2.8122611 0.72598737 0.71263772)
(1.830171 0.74290133 -0.74484998)
(1.833105 0.76152879 -0.737499)
(1.838227 0.79382002 -0.72399688)
(1.823203 0.69824678 0.76120597)
(3.0783279 0.85087693 0.54661697)
(3.0783279 0.85087693 -0.54661697)
(2.818598 0.72966439 -0.71081752)
(1.831638 0.75222683 -0.74120933)
(1.8305449 0.74528009 0.74392879)
(1.8265131 0.71952718 0.75363147)
(3.066241 0.85478479 -0.5470593)
(1.8239419 0.7030127 -0.75954401)
(1.82248 0.69358069 -0.76281399)
(1.828339 0.73121351 0.74930203)
(1.8202749 0.67930973 0.7676152)
(2.8206191 0.73087388 0.71021998)
(3.066241 0.85478479 0.5470593)
(3.0613861 0.85635018 0.54722577)
(3.029922 0.86643147 -0.54815072)
(3.0347559 0.86488992 -0.54802603)
(3.025079 0.86797309 -0.54826927)
(3.0396211 0.86333591 -0.54789412)
(2.7658441 0.70498699 -0.72343987)
(2.7750559 0.7082966 -0.72164381)
(1.856776 0.90834731 -0.66787452)
(1.856065 0.90402091 -0.67024142)
(1.863979 0.95184797 -0.6429202)
(1.860387 0.93021518 0.65559572)
(1.856423 0.90619719 0.66905332)
(1.85498 0.89741099 0.67381859)
(2.709487 0.69315541 0.73126048)
(2.704468 0.69262141 0.73176438)
(2.7658629 0.70499289 0.72343659)
(2.7612269 0.70348722 0.72427869)
(3.124213 0.83591121 0.54456711)
(3.1314681 0.83352768 -0.54418689)
(1.819172 0.67214859 -0.76995867)
(1.843344 0.82578182 -0.70965803)
(2.784081 0.71195358 0.71972102)
(3.114563 0.83907491 -0.54504842)
(3.1049111 0.84223062 -0.54550248)
(1.836037 0.7800492 -0.72987407)
(1.849537 0.86409009 -0.69114578)
(1.85244 0.8819012 -0.68202901)
(1.8700221 0.98795938 -0.62054098)
(1.853892 0.89077657 0.67736191)
(1.849902 0.8663317 0.69001639)
(1.843344 0.82578498 0.70965648)
(1.8386019 0.7961719 0.72297531)
(2.7995219 0.71916097 0.71604449)
(2.803766 0.72134882 0.71494722)
(2.7907779 0.71493328 0.71818697)
(2.7863939 0.71295708 -0.71920162)
(2.7907641 0.71492642 -0.71819037)
(1.847355 0.85063291 -0.69781721)
(1.818079 0.6650387 0.77224219)
(2.420084 0.67404872 0.75341338)
(2.4402909 0.67480779 0.75224739)
(3.1579959 0.8247751 0.54265481)
(2.7043331 0.69260758 -0.73177773)
(2.6968219 0.69186789 -0.732508)
(2.6917939 0.69138551 -0.73299003)
(2.684238 0.69066137 -0.73371059)
(2.6578741 0.68819177 -0.7361719)
(2.599483 0.68336779 -0.74122328)
(1.818077 0.66502589 -0.77224618)
(1.862901 0.94537199 0.64677089)
(1.864683 0.95607418 0.64038098)
(3.153146 0.82637942 0.54295218)
(3.148344 0.82796597 0.54323888)
(3.136292 0.83194017 0.54392511)
(3.153146 0.8263793 -0.54295218)
(1.865759 0.9625237 -0.63646579)
(2.7319691 0.69634539 0.72870648)
(2.754024 0.70135921 0.72550678)
(2.749146 0.70006031 0.72628498)
(2.4682 0.6759479 -0.75056058)
(2.473258 0.67616719 -0.75024498)
(2.478308 0.67639041 -0.74992669)
(2.4935279 0.67708927 -0.74894822)
(2.346698 0.67166138 -0.75729281)
(2.341593 0.6715129 -0.75754339)
(2.2986121 0.67033118 -0.75956333)
(2.3036051 0.67046279 -0.75933671)
(2.1896141 0.66770101 -0.7640397)
(2.0247691 0.66384608 0.76944411)
(2.0830851 0.66526699 0.7676869)
(2.0932219 0.66550428 0.76736557)
(2.0982931 0.66562217 0.76720297)
(2.2275519 0.66857708 0.76257771)
(2.2123129 0.66822201 0.76317638)
(2.2554269 0.66924262 0.7614404)
(2.2401841 0.66887581 0.76206923)
(2.3542271 0.67188412 0.75691879)
(2.3390291 0.67143899 0.75766838)
(2.3592851 0.67203617 0.75666457)
(2.5262699 0.67874259 0.74673939)
(2.521215 0.67847288 0.74708998)
(2.5085781 0.67782229 0.74795097)
(2.500972 0.67744642 0.74845868)
(2.495944 0.67720407 0.74879009)
(3.1724479 0.81998527 0.54171932)
(3.16763 0.82158369 0.54203957)
(2.594511 0.68300593 -0.74162579)
(2.5894711 0.68264681 -0.74202931)
(2.57689 0.68178338 -0.74301791)
(2.581893 0.6821211 -0.74262798)
(2.569278 0.6812833 -0.74360323)
(2.556664 0.6804896 -0.74455237)
(2.541502 0.67959023 -0.74566072)
(2.5314291 0.67902368 -0.74637783)
(2.4149821 0.67386502 0.75370067)
(2.4453321 0.6750055 0.75194943)
(2.531363 0.67902011 0.74638247)
(2.5793121 0.68194598 0.74282962)
(2.561651 0.68079829 0.7441802)
(3.16763 0.82158363 -0.54203951)
(2.4201379 0.67405069 -0.75341028)
(1.844821 0.65878618 0.77392691)
(1.92085 0.66102839 0.77221447)
(1.933526 0.66138917 0.77190208)
(1.941111 0.66160327 0.77171171)
(1.966489 0.66230798 0.77105558)
(1.9816999 0.6627211 0.77064878)
(1.974108 0.66251582 0.7708531)
(2.181932 0.66752619 0.76432443)
(2.148984 0.66678017 0.7655049)
(2.136312 0.66649312 0.76594228)
(2.217433 0.66834068 0.762977)
(2.306092 0.67052889 0.75922298)
(2.3162251 0.67080158 0.75875467)
(2.3846049 0.67283022 0.75535548)
(2.3922391 0.67308128 0.7549485)
(3.1821201 0.81677181 -0.5410496)
(3.191745 0.81356889 -0.54034573)
(2.3669469 0.67227048 -0.75627488)
(2.3821981 0.6727522 -0.75548261)
(2.3871889 0.67291462 -0.75521839)
(2.2934999 0.67019778 -0.75979322)
(2.263104 0.66943038 -0.76111722)
(2.2529669 0.6691829 -0.76154298)
(2.237756 0.668818 -0.76216781)
(2.2276111 0.66857851 -0.76257539)
(2.17698 0.66741377 -0.76450598)
(2.133852 0.66643733 -0.7660262)
(2.0451419 0.66435468 -0.76884729)
(2.0502019 0.66447878 -0.76869619)
(1.991919 0.66299409 -0.77037001)
(1.839813 0.65863389 -0.77402961)
(1.829633 0.65832257 -0.77423447)
(2.0069909 0.66338998 0.76995069)
(2.0171649 0.66365248 0.76966238)
(2.037456 0.66416448 0.7690745)
(2.2021761 0.6679883 0.76356608)
(2.2224891 0.66845852 0.7627784)
(2.207288 0.6681059 0.76337039)
(2.260489 0.66936618 0.76122779)
(2.32129 0.67094028 0.75851738)
(2.3466411 0.67165983 0.75729561)
(2.379492 0.6726653 0.75562477)
(1.898065 0.66037017 0.77275711)
(1.867581 0.65947109 0.773444)
(1.86256 0.65932101 0.77355278)
(1.857447 0.65916759 0.77366221)
(3.213357 0.80636001 0.53861308)
(3.2182069 0.80473989 0.53819257)
(3.2277851 0.80153811 0.53732443)
(3.2277861 0.80153787 -0.53732443)
(2.1566701 0.66695398 -0.76523519)
(2.1693339 0.6672405 -0.76478338)
(2.1186271 0.66609043 -0.76653808)
(2.0223179 0.66378391 -0.7695148)
(2.0400751 0.66422951 -0.76899737)
(1.915884 0.66088599 -0.77233487)
(1.9006521 0.66044551 -0.77269667)
(1.94628 0.66174829 -0.7715804)
(1.877831 0.65977567 -0.7732181)
(1.862627 0.65932298 -0.77355129)
(3.242202 0.7967118 0.53592873)
(3.242203 0.79671133 -0.53592849)
(3.2374001 0.79832047 -0.53640419)
(3.273376 0.78627318 -0.53241658)
(3.2852991 0.78232789 -0.53069782)
(3.292491 0.77997702 -0.52948952)
(3.2541981 0.79268777 -0.53468609)
(3.3484261 0.76304263 0.51233357)
(3.3325131 0.76756471 0.51899779)
(3.3484261 0.76304263 -0.51233369)
(3.3527949 0.76184791 0.51018411)
(3.3971331 0.75091147 0.47823191)
(3.409179 0.74832338 0.46536499)
(3.432796 0.74370962 0.43259841)
(3.4353781 0.74324411 0.42824969)
(3.4378901 0.74279898 0.42384011)
(3.4910691 0.73493117 0.26284561)
(3.4920499 0.73479593 0.25789669)
(3.4957831 0.7342729 0.23786549)
(3.4987609 0.733845 0.2203141)
(3.4995649 0.73372757 0.21529169)
(3.4920499 0.73479593 -0.25789759)
(3.4910691 0.73493117 -0.26284629)
(3.465266 0.73846102 -0.361112)
(3.393548 0.75171387 -0.4816474)
(3.465266 0.73846102 0.3611117)
(3.4784839 0.73663449 0.31733671)
(3.479764 0.73646188 0.31245089)
(3.4995649 0.73372757 -0.21529169)
(3.4987609 0.733845 -0.2203141)
(3.4957831 0.7342729 -0.2378656)
(3.4784839 0.73663437 -0.31733611)
(3.449321 0.74087608 -0.4012616)
(3.4378901 0.74279898 -0.42383999)
(3.4353781 0.74324411 -0.42825001)
(3.409179 0.74832338 -0.4653649)
(3.5161221 0.73112202 0.01016742)
(3.5159791 0.73114431 0.022842141)
(3.5137119 0.7315135 -0.083880663)
(3.512907 0.73164582 -0.096544452)
(3.505604 0.73281658 -0.17247631)
(3.5137119 0.7315135 0.083880693)
(3.5140049 0.73146528 0.078751937)
(3.514873 0.73132288 0.061011449)
(3.5161221 0.73112202 -0.01016732)
(3.5159791 0.73114431 -0.022841631)
(3.5161481 0.73111808 -0.0050805379)
(3.515079 0.73128933 -0.055941869)
(3.514873 0.73132288 -0.061010361)
(1.53 0.64800882 -0.77790183)
(1.547749 0.64868122 -0.77780813)
(1.555385 0.64896792 -0.77776319)
(1.56038 0.64915478 -0.77773237)
(1.595897 0.65046573 -0.77747917)
(1.631407 0.6517458 -0.77716488)
(1.640797 0.66587007 -0.7727505)
(1.642225 0.67045867 -0.77127838)
(1.645828 0.68200862 -0.76749349)
(1.650162 0.69581079 -0.76282048)
(1.662537 0.734631 -0.74878538)
(1.670604 0.75949562 -0.73908901)
(1.680179 0.78857207 -0.7270298)
(1.68241 0.79528201 -0.72413439)
(1.684635 0.80194759 -0.72121578)
(1.686862 0.80859768 -0.71826148)
(1.6957819 0.8349902 -0.70611328)
(1.714476 0.88912112 -0.67900747)
(1.718978 0.90192938 -0.6721462)
(1.736263 0.95032787 -0.64459109)
(1.741527 0.96483028 -0.63581407)
(1.75128 0.99141872 -0.61907017)
(1.668277 1.00527 -0.6099394)
(1.635501 1.003992 -0.61063129)
(1.620389 1.00317 -0.61108071)
(1.612836 1.002703 -0.61133683)
(1.5826941 1.000471 -0.61256552)
(1.53246 0.99552858 -0.61528498)
(1.53 0.99525207 -0.61543638)
(1.53 1.002756 0.61572802)
(1.53 0.99525231 0.61543638)
(1.557559 0.99817783 0.61382937)
(1.5826941 1.000471 0.61256552)
(1.612835 1.002703 0.61133683)
(1.620388 1.00317 0.61108071)
(1.625384 1.003458 0.61092287)
(1.635501 1.003992 0.61063129)
(1.668276 1.00527 0.60993928)
(1.752795 0.99551523 0.61641359)
(1.751282 0.99142158 0.61906832)
(1.74227 0.96686667 0.6345619)
(1.740012 0.96066719 0.63835901)
(1.733247 0.94196951 0.64953852)
(1.7317441 0.93779141 0.65198159)
(1.727999 0.92733938 0.65800631)
(1.72348 0.91465259 0.66515487)
(1.715963 0.89336199 0.67675519)
(1.713727 0.88698077 0.68013698)
(1.70998 0.87624472 0.68572962)
(1.70549 0.86329359 0.69231588)
(1.700259 0.84809512 0.69982553)
(1.698765 0.84373218 0.70193797)
(1.6928051 0.82622188 0.71022499)
(1.6913019 0.82178187 0.71227819)
(1.689836 0.81743771 0.71426839)
(1.678723 0.78418171 0.72890121)