/*--------------------------------*- C++ -*----------------------------------*\
| =========                 |                                                 |
| \\      /  F ield         | OpenFOAM: The Open Source CFD Toolbox           |
|  \\    /   O peration     | Version:  v1812                                 |
|   \\  /    A nd           | Web:      www.OpenFOAM.com                      |
|    \\/     M anipulation  |                                                 |
\*---------------------------------------------------------------------------*/
FoamFile
{
    version     2.0;
    format      ascii;
    class       extendedFeatureEdgeMesh;
    location    "constant/extendedFeatureEdgeMesh";
    object      fastback_optSurface.extendedFeatureEdgeMesh;
}
// * * * * * * * * * * * * * * * * * * * * * * * * * * * * * * * * * * * * * //

// points

2100
(
(3.1527431 0.55299997 0.791668)
(3.1527431 0.55299968 -0.791668)
(3.1663079 0.55299991 -0.79003417)
(3.159292 0.55299968 -0.79088378)
(3.159483 0.55299997 0.79086077)
(3.1665449 0.55299997 0.79000533)
(3.173306 0.55299997 -0.78917712)
(3.1735871 0.55299997 0.78914237)
(3.1804099 0.55300009 -0.78829652)
(3.18063 0.55299997 0.78826922)
(3.1874771 0.55300009 -0.78741038)
(3.1876831 0.55299997 0.78738463)
(3.1945629 0.55299997 -0.78651148)
(3.1947179 0.55299997 0.78649187)
(3.2016611 0.55299997 -0.78560013)
(3.201869 0.55299991 0.78557342)
(3.2087409 0.55299997 -0.78468001)
(3.208976 0.55299997 0.78464937)
(3.215924 0.55299997 -0.78373528)
(3.216089 0.55299997 0.78371352)
(3.2230489 0.55299997 -0.78278673)
(3.2232859 0.55299997 0.78275478)
(3.2301879 0.55299997 -0.78182417)
(3.2304709 0.55299997 0.78178579)
(3.2374499 0.55300009 -0.78083289)
(3.2376549 0.55299997 0.78080487)
(3.244647 0.55300009 -0.77983809)
(3.244936 0.55299997 0.77979797)
(3.251847 0.55300021 -0.77883011)
(3.2521579 0.55299997 0.77878648)
(3.259171 0.55300027 -0.77779168)
(3.2593861 0.55299997 0.77776122)
(3.26649 0.55300027 -0.77674031)
(3.266741 0.55299997 0.77670407)
(3.2738061 0.55300027 -0.77567577)
(3.2741001 0.55300009 0.77563268)
(3.281146 0.55300027 -0.77459341)
(3.281446 0.55300021 0.77454913)
(3.2885909 0.55300027 -0.77348119)
(3.28879 0.55300027 0.77345121)
(3.296057 0.55300027 -0.77235061)
(3.2962439 0.55300039 0.772322)
(3.303489 0.55300027 -0.77121001)
(3.3037779 0.55300027 0.77116531)
(3.3109081 0.55300021 -0.77005589)
(3.311296 0.55300027 0.76999521)
(3.3184071 0.55300009 -0.76887357)
(3.3187971 0.55300021 0.76881182)
(3.3259909 0.55300009 -0.76766127)
(3.326293 0.55300009 0.7676127)
(3.3336439 0.55299997 -0.76642102)
(3.3338339 0.55299997 0.76638991)
(3.3413341 0.55299997 -0.76515698)
(3.3414519 0.55299997 0.76513737)
(3.349036 0.55299997 -0.76387298)
(3.349134 0.55299997 0.76385659)
(3.3567541 0.55299997 -0.76256818)
(3.356868 0.55299997 0.76254869)
(3.364491 0.55299997 -0.76124167)
(3.364646 0.55300009 0.76121479)
(3.3722489 0.55299997 -0.75989258)
(3.3724599 0.55300009 0.75985563)
(3.380033 0.55299997 -0.75851959)
(3.3803029 0.55300009 0.75847149)
(3.3878469 0.55299997 -0.75712162)
(3.38817 0.55300009 0.75706333)
(3.3956981 0.55300009 -0.75569677)
(3.3960559 0.55300009 0.75563139)
(3.4035921 0.55300021 -0.75424379)
(3.403959 0.55300009 0.75417578)
(3.4115369 0.55300021 -0.75276041)
(3.411876 0.55299997 0.75269681)
(3.419549 0.55300027 -0.75124288)
(3.4198041 0.55300009 0.75119418)
(3.4276049 0.55300027 -0.74969488)
(3.427742 0.55300021 0.74966842)
(3.4356551 0.55300021 -0.74812597)
(3.4357221 0.55300009 0.74811292)
(3.4436979 0.55299997 -0.7465359)
(3.4436979 0.55299997 0.7465359)
(3.4515641 0.55299997 -0.744959)
(3.451685 0.55300009 0.74493462)
(3.4594259 0.55299968 -0.74336278)
(3.459753 0.55299968 0.74329609)
(3.4674051 0.55299997 -0.74172533)
(3.4679279 0.55299968 0.74161738)
(3.475395 0.55300009 -0.740071)
(3.476156 0.55299997 0.73991269)
(3.4833939 0.55300009 -0.73840332)
(3.4843891 0.55300021 0.73819512)
(3.491436 0.55299997 -0.73671728)
(3.492662 0.55300027 0.73645931)
(3.4996159 0.55299997 -0.73499483)
(3.501076 0.55300027 0.73468649)
(3.507802 0.55299997 -0.73326522)
(3.50949 0.55300009 0.73290801)
(3.5160069 0.55300009 -0.73152763)
(3.51794 0.55300009 0.73111749)
(3.523618 0.55300009 -0.72991258)
(3.5251069 0.55300009 0.72959638)
(3.530175 0.55300009 -0.7285198)
(3.5312779 0.55300009 0.72828549)
(3.5358219 0.55300009 -0.7273196)
(3.5365911 0.55300009 0.72715598)
(3.5406809 0.55300009 -0.72628617)
(3.541167 0.55300009 0.72618282)
(3.544862 0.55300009 -0.72539687)
(3.5451081 0.55300009 0.72534472)
(3.5484681 0.55300009 -0.72462958)
(3.548501 0.55300009 0.72462273)
(3.5515749 0.55300009 -0.72396863)
(3.551424 0.55300009 0.72400069)
(3.5543461 0.55300009 0.72337878)
(3.5543461 0.55300009 -0.72337878)
(3.5544651 0.55299997 -0.72335339)
(3.5544651 0.55299997 0.72335339)
(3.557029 0.55299997 -0.72273779)
(3.5570221 0.55300027 0.7227397)
(3.5595081 0.55299997 0.72189093)
(3.559514 0.55299997 -0.72188801)
(3.5618091 0.55300009 0.72063208)
(3.561806 0.55300009 -0.72063398)
(3.563822 0.55299997 -0.71895128)
(3.563823 0.55299997 0.71895099)
(3.565603 0.55300009 -0.71701509)
(3.565604 0.55300009 0.71701348)
(3.567256 0.55299997 -0.71495777)
(3.5672491 0.55299997 0.71496701)
(3.568959 0.55299997 0.71273762)
(3.569 0.55299997 -0.71268421)
(3.5708389 0.55300009 0.71024847)
(3.5709131 0.55300009 -0.71015018)
(3.573 0.55299938 0.70733958)
(3.5730529 0.55299962 -0.70726818)
(3.5754371 0.55299997 0.70399338)
(3.575465 0.55299997 -0.70395458)
(3.5781701 0.55299997 0.70015413)
(3.5781579 0.55299997 -0.70017159)
(3.5811901 0.55299997 -0.69580388)
(3.5812299 0.55299997 0.69574589)
(3.5845649 0.55299997 -0.69080108)
(3.58464 0.55299997 0.69068712)
(3.588321 0.55299997 -0.68504697)
(3.5884211 0.55299997 0.68489069)
(3.5924971 0.55299997 -0.67840737)
(3.592597 0.55299997 0.67824519)
(3.597105 0.55299997 -0.67076671)
(3.5971601 0.55299997 0.67067277)
(3.6021471 0.55299997 -0.66199768)
(3.6021409 0.55299997 0.66200858)
(3.607476 0.55299997 0.65223438)
(3.6075139 0.55299997 -0.65216208)
(3.6130891 0.55299997 0.64135343)
(3.613107 0.55299997 -0.64131677)
(3.618449 0.55299997 0.63034588)
(3.618449 0.55299997 -0.63034588)
(3.623373 0.55299997 0.61966431)
(3.623332 0.55299997 -0.61975622)
(3.628088 0.55299997 0.60888892)
(3.6280091 0.55299997 -0.60907412)
(3.632643 0.55299997 -0.59795249)
(3.632658 0.55299997 0.59791678)
(3.6370909 0.55299997 -0.58678162)
(3.637078 0.55299997 0.5868172)
(3.6413851 0.55299997 0.57555091)
(3.6413851 0.55299997 -0.57555091)
(3.646461 0.55299997 -0.56168687)
(3.646461 0.55300009 0.56168741)
(3.651325 0.55299997 -0.54774791)
(3.651324 0.55299997 0.54774809)
(3.6559851 0.55299997 -0.5337286)
(3.655992 0.55299997 0.53370643)
(3.6604741 0.55299997 0.51954502)
(3.66047 0.55299997 -0.51955861)
(3.664762 0.55299997 0.50531501)
(3.6647611 0.55300009 -0.50531781)
(3.668865 0.55299997 0.49100551)
(3.6688659 0.55300009 -0.4910017)
(3.6727901 0.55299997 0.4766131)
(3.672786 0.55300009 -0.47662869)
(3.6765289 0.55300009 0.46218979)
(3.6765211 0.55300009 -0.46222079)
(3.6801169 0.55300009 0.4476184)
(3.6801081 0.55299997 -0.44765699)
(3.683517 0.55299997 0.43307269)
(3.683511 0.55299997 -0.43309841)
(3.686754 0.55299997 0.41847011)
(3.6867509 0.55299997 -0.41848391)
(3.6898389 0.55299997 0.40378591)
(3.689832 0.55299997 -0.40381989)
(3.692765 0.55299997 0.38907)
(3.692754 0.55299997 -0.38913059)
(3.695533 0.55299997 -0.37435681)
(3.6955421 0.55299997 0.37430549)
(3.6981721 0.55299997 -0.35949731)
(3.6981671 0.55299997 0.3595286)
(3.7006569 0.55299997 -0.34466541)
(3.7006459 0.55299991 0.3447324)
(3.703002 0.55299997 -0.32979769)
(3.702991 0.55299968 0.32986569)
(3.705204 0.55299997 -0.31494531)
(3.705195 0.55299968 0.3150098)
(3.7072721 0.55299997 -0.3000851)
(3.7072639 0.55299968 0.3001481)
(3.7092221 0.55299997 -0.2851277)
(3.7092149 0.55299991 0.28518149)
(3.7110391 0.55299997 -0.2701996)
(3.7110331 0.55299997 0.27024901)
(3.7127321 0.55299997 -0.2552709)
(3.7127321 0.55299997 0.25527471)
(3.7143159 0.55299997 -0.2402353)
(3.7143121 0.55299997 0.24027459)
(3.7157791 0.55299997 -0.22522201)
(3.715776 0.55299997 0.2252574)
(3.717129 0.55299997 -0.21020401)
(3.7171259 0.55299991 0.2102358)
(3.7183721 0.55299997 -0.19512729)
(3.71837 0.55299991 0.1951575)
(3.7195079 0.55299997 -0.1800257)
(3.719507 0.55299991 0.1800538)
(3.7205369 0.55299997 -0.1649455)
(3.720535 0.55299991 0.164979)
(3.7214639 0.55299997 -0.14985991)
(3.721463 0.55299991 0.14988279)
(3.722296 0.55299991 -0.1346693)
(3.722295 0.55299991 0.1346897)
(3.723026 0.55299968 -0.1195522)
(3.7230251 0.55299968 0.1195692)
(3.72366 0.55299968 -0.1044409)
(3.72366 0.55299968 0.1044542)
(3.724205 0.55299968 -0.08925087)
(3.7242041 0.55299968 0.089262187)
(3.724658 0.55299991 0.074040674)
(3.724658 0.55299968 -0.074033007)
(3.7250209 0.55299991 0.058906779)
(3.7250209 0.55299991 -0.058900911)
(3.7252979 0.55299997 0.043756209)
(3.725493 0.55299997 0.02850781)
(3.7252989 0.55299997 -0.043752201)
(3.725493 0.55299997 -0.028506029)
(3.7256031 0.55300009 -0.01326735)
(3.7256031 0.55300009 0.0132695)
(3.7256341 0.55299997 1.731071e-09)
(3.1560669 0.55784857 0.78878927)
(3.1544039 0.55542469 0.79022849)
(3.1598101 0.56313252 0.78555232)
(3.1583829 0.56113732 0.78678572)
(3.1640999 0.56896681 0.78184873)
(3.1629131 0.56738138 0.78287321)
(3.1673009 0.57321519 0.77908969)
(3.1657 0.57109118 0.78046918)
(3.1738689 0.58151323 0.7734369)
(3.171613 0.57866782 0.77537727)
(3.18101 0.59005767 0.76729888)
(3.178241 0.58674592 0.76967847)
(3.1874239 0.5973531 0.76178998)
(3.181864 0.59102458 0.76656538)
(3.192977 0.60334581 0.75702)
(3.1877699 0.59772462 0.76149273)
(3.1984789 0.60918218 0.75229251)
(3.195729 0.6062637 0.75465637)
(3.2050631 0.61575723 0.74662828)
(3.203162 0.61386943 0.74826461)
(3.2069631 0.61764562 0.74499178)
(3.2088621 0.61953431 0.74335521)
(3.2100489 0.62071502 0.74233192)
(3.217371 0.62750101 0.73600823)
(3.216217 0.62643361 0.73700649)
(3.2185259 0.62856883 0.73500967)
(3.2196791 0.62963682 0.73401088)
(3.2150619 0.62536639 0.73800468)
(3.2127509 0.62323302 0.74000072)
(3.221828 0.63162559 0.73214948)
(3.2207539 0.63063109 0.73308033)
(3.2229011 0.63262039 0.73121858)
(3.223974 0.63361561 0.73028749)
(3.2271769 0.63637859 0.72750479)
(3.2255759 0.63499671 0.72889638)
(3.2287769 0.63776118 0.7261129)
(3.230376 0.6391446 0.72472042)
(3.233418 0.64177883 0.7220664)
(3.2318981 0.64046133 0.72339362)
(3.2349379 0.6430971 0.72073859)
(3.2364559 0.64441609 0.71941042)
(3.238225 0.645854 0.71786112)
(3.2373409 0.64513493 0.71863592)
(3.239109 0.64657319 0.7170862)
(3.2399931 0.64729291 0.71631122)
(3.2418301 0.6487807 0.71469748)
(3.240911 0.64803672 0.71550441)
(3.242748 0.64952523 0.71389037)
(3.243665 0.65026993 0.71308303)
(3.2445819 0.65101492 0.71227539)
(3.2454979 0.65176028 0.71146762)
(3.2464139 0.65250611 0.71065962)
(3.247329 0.65325218 0.70985121)
(3.248313 0.65405422 0.70898211)
(3.2492959 0.65485662 0.7081126)
(3.252461 0.6574403 0.7053073)
(3.25138 0.65655363 0.70626599)
(3.253541 0.65832752 0.70434821)
(3.2546189 0.65921551 0.70338869)
(3.255697 0.6601038 0.70242888)
(3.2567749 0.66099268 0.70146859)
(3.2578509 0.66188228 0.70050812)
(3.2589271 0.66277242 0.69954711)
(3.260781 0.66429919 0.6978876)
(3.2598541 0.66353559 0.69871742)
(3.2617071 0.66506332 0.69705749)
(3.2626319 0.66582787 0.69622701)
(3.263557 0.66659302 0.69539618)
(3.2644811 0.6673584 0.69456518)
(3.265404 0.66812438 0.69373381)
(3.2663269 0.66889077 0.69290203)
(3.2680459 0.67058742 0.69135052)
(3.2671871 0.66973889 0.69212627)
(3.268904 0.67143643 0.69057429)
(3.2697611 0.67228591 0.68979788)
(3.2712691 0.67385489 0.68843102)
(3.270515 0.67307031 0.68911451)
(3.272022 0.67463988 0.68774718)
(3.272774 0.67542541 0.68706328)
(3.274725 0.6772809 0.68528652)
(3.2737501 0.67635268 0.68617499)
(3.2756989 0.6782099 0.68439758)
(3.2766719 0.67913949 0.68350852)
(3.2776439 0.68006998 0.68261898)
(3.278615 0.68100113 0.68172932)
(3.2795849 0.68193322 0.68083918)
(3.2805541 0.68286592 0.67994869)
(3.282768 0.68527818 0.67790931)
(3.281662 0.68407148 0.67892921)
(3.2838731 0.68648601 0.67688912)
(3.284976 0.68769473 0.67586851)
(3.2866881 0.6893543 0.67428142)
(3.2858329 0.68852413 0.67507499)
(3.2875431 0.69018513 0.67348742)
(3.2883959 0.69101661 0.67269331)
(3.2892489 0.69184887 0.6718989)
(3.2901011 0.69268191 0.67110431)
(3.290952 0.6935156 0.67030942)
(3.2918019 0.69435012 0.66951418)
(3.2929411 0.69547677 0.66844708)
(3.292372 0.69491333 0.66898072)
(3.293509 0.69604069 0.66791332)
(3.2940781 0.69660491 0.66737938)
(3.294646 0.69716942 0.66684538)
(3.295213 0.6977343 0.66631132)
(3.2957799 0.69829953 0.66577709)
(3.2963469 0.698865 0.66524267)
(3.2982919 0.7005471 0.66340369)
(3.2973199 0.69970548 0.66432339)
(3.299263 0.70138967 0.66248357)
(3.3002329 0.70223361 0.66156322)
(3.3012011 0.70307839 0.66064233)
(3.3021679 0.70392448 0.65972108)
(3.303133 0.70477158 0.65879953)
(3.3040969 0.70561999 0.6578775)
(3.3049569 0.70641011 0.65705347)
(3.3058159 0.70720112 0.65622908)
(3.306674 0.70799297 0.65540451)
(3.3075311 0.70878577 0.65457958)
(3.3086369 0.70960158 0.65351301)
(3.308084 0.70919353 0.6540463)
(3.3091891 0.71001011 0.65297937)
(3.309741 0.71041888 0.65244567)
(3.310292 0.71082819 0.6519118)
(3.310843 0.71123791 0.6513778)
(3.311393 0.71164793 0.65084362)
(3.3119431 0.71205842 0.65030932)
(3.3135619 0.7131896 0.64873219)
(3.312753 0.71262372 0.64952099)
(3.3143699 0.7137565 0.6479432)
(3.315177 0.71432412 0.64715368)
(3.315984 0.71489263 0.64636391)
(3.3167889 0.71546203 0.64557362)
(3.3175931 0.71603209 0.64478278)
(3.3183961 0.71660298 0.64399183)
(3.320313 0.71766251 0.64209777)
(3.319356 0.71713221 0.64304513)
(3.32127 0.71819413 0.64114982)
(3.3222251 0.71872699 0.64020097)
(3.323081 0.71923733 0.6393494)
(3.323936 0.71974868 0.63849717)
(3.324789 0.72026098 0.63764453)
(3.3256409 0.72077441 0.63679129)
(3.3264921 0.72128862 0.63593751)
(3.327342 0.7218039 0.63508302)
(3.328191 0.7223202 0.63422811)
(3.3290379 0.72283751 0.6333726)
(3.3318231 0.72412908 0.63054937)
(3.3313601 0.72391301 0.63102043)
(3.3322859 0.72434539 0.63007808)
(3.3327479 0.72456199 0.62960672)
(3.3332109 0.72477901 0.62913501)
(3.333672 0.72499633 0.62866318)
(3.3341341 0.72521389 0.62819117)
(3.334595 0.72543192 0.62771899)
(3.3350561 0.72565007 0.62724662)
(3.335516 0.72586858 0.62677401)
(3.3359759 0.72608751 0.62630123)
(3.336436 0.72630668 0.62582809)
(3.3308959 0.7236973 0.63149118)
(3.329968 0.72326678 0.63243228)
(3.337044 0.72661859 0.62520188)
(3.337651 0.72693098 0.62457532)
(3.338258 0.72724402 0.62394828)
(3.3388641 0.72755748 0.62332112)
(3.339968 0.72798121 0.62217587)
(3.339416 0.72776908 0.62274867)
(3.340519 0.72819358 0.62160301)
(3.341069 0.72840661 0.62102962)
(3.341619 0.72862011 0.62045592)
(3.342169 0.72883391 0.61988193)
(3.3427179 0.72904819 0.61930758)
(3.343266 0.72926289 0.61873293)
(3.3438139 0.72947818 0.61815798)
(3.344362 0.72969389 0.61758268)
(3.344909 0.72991008 0.61700708)
(3.3454549 0.73012668 0.61643112)
(3.3460009 0.73034382 0.6158548)
(3.3465459 0.73056138 0.61527818)
(3.347091 0.73077953 0.61470127)
(3.347636 0.73099798 0.61412388)
(3.3477111 0.7310307 0.6140433)
(3.3492219 0.73150373 0.61243558)
(3.3487389 0.73135281 0.61295009)
(3.349705 0.73165488 0.61192089)
(3.3501861 0.73180652 0.61140579)
(3.350668 0.73195833 0.61089039)
(3.3511491 0.7321105 0.61037493)
(3.35163 0.73226303 0.60985899)
(3.3521099 0.73241597 0.60934281)
(3.3525901 0.73256928 0.60882628)
(3.35307 0.73272288 0.60830963)
(3.353549 0.73287678 0.60779238)
(3.354027 0.73303109 0.60727513)
(3.3545051 0.73318583 0.60675752)
(3.3549831 0.7333408 0.60623962)
(3.3554599 0.73349613 0.60572129)
(3.355937 0.73365182 0.60520279)
(3.356946 0.73389387 0.60410267)
(3.356442 0.7337727 0.60465288)
(3.357806 0.73411423 0.60316342)
(3.3573761 0.7340039 0.60363322)
(3.3582349 0.73422492 0.60269332)
(3.358664 0.73433572 0.60222298)
(3.359092 0.73444688 0.6017524)
(3.3595209 0.73455828 0.60128158)
(3.3599479 0.73466998 0.60081053)
(3.3603759 0.73478198 0.60033911)
(3.3608029 0.73489428 0.59986752)
(3.3612299 0.73500693 0.59939557)
(3.361656 0.73511982 0.59892362)
(3.362082 0.73523289 0.5984512)
(3.3625081 0.73534638 0.59797847)
(3.3629329 0.73545998 0.59750569)
(3.363358 0.73557413 0.59703249)
(3.3637819 0.73568839 0.59655911)
(3.365164 0.73595309 0.5950135)
(3.3644741 0.73582041 0.59578669)
(3.366739 0.73627698 0.59324312)
(3.365952 0.73611462 0.59412873)
(3.3675251 0.73644048 0.59235638)
(3.368309 0.73660493 0.59146881)
(3.369092 0.73677027 0.59058022)
(3.369874 0.73693669 0.58969069)
(3.3706541 0.73710418 0.58880031)
(3.371433 0.73727262 0.58790892)
(3.372637 0.73744982 0.58652681)
(3.372036 0.73736089 0.58721811)
(3.373446 0.73757547 0.58559501)
(3.3730421 0.73751253 0.586061)
(3.3738501 0.73763877 0.58512872)
(3.374253 0.73770243 0.5846622)
(3.374656 0.73776609 0.58419538)
(3.3750579 0.73783022 0.58372831)
(3.3754611 0.73789459 0.58326089)
(3.3758631 0.73795921 0.5827933)
(3.376265 0.73802412 0.58232528)
(3.3766661 0.7380892 0.5818572)
(3.3770671 0.73815459 0.58138871)
(3.3774669 0.73822039 0.58091992)
(3.377867 0.73828632 0.58045101)
(3.378267 0.73835248 0.57998168)
(3.3786659 0.73841912 0.57951212)
(3.379065 0.73848581 0.5790422)
(3.3809869 0.73869318 0.57676858)
(3.3802879 0.738617 0.57759798)
(3.381686 0.73877031 0.5759384)
(3.3823831 0.73884821 0.57510728)
(3.38287 0.73890322 0.57452571)
(3.3833561 0.7389586 0.57394379)
(3.383842 0.73901439 0.5733614)
(3.384326 0.73907071 0.57277858)
(3.3848109 0.73912728 0.57219541)
(3.3852949 0.73918438 0.57161158)
(3.385778 0.73924178 0.57102752)
(3.386261 0.73929971 0.57044291)
(3.3870151 0.73938781 0.56952709)
(3.3866379 0.73934358 0.56998521)
(3.3882899 0.73947579 0.56797218)
(3.3876531 0.73943138 0.56875002)
(3.388926 0.73952079 0.56719363)
(3.3895609 0.73956662 0.56641418)
(3.3901949 0.73961312 0.56563401)
(3.3908279 0.73966032 0.56485289)
(3.3914599 0.73970819 0.56407112)
(3.3920901 0.73975682 0.56328839)
(3.3931439 0.73983282 0.56197631)
(3.3926179 0.73979449 0.56263268)
(3.3936701 0.73987162 0.56131941)
(3.3941951 0.73991078 0.56066191)
(3.3950679 0.73994201 0.55956441)
(3.3946321 0.73992622 0.56011331)
(3.395504 0.73995799 0.55901498)
(3.3959401 0.73997438 0.5584653)
(3.3963749 0.73999119 0.55791521)
(3.3968091 0.74000829 0.55736458)
(3.397243 0.7400257 0.5568136)
(3.397676 0.7400434 0.55626231)
(3.398689 0.74007642 0.55496973)
(3.3981831 0.74005967 0.55561632)
(3.399194 0.74009359 0.5543226)
(3.399698 0.74011141 0.55367488)
(3.400202 0.74012947 0.55302662)
(3.4007051 0.74014819 0.55237782)
(3.401207 0.74016732 0.55172849)
(3.4017079 0.74018693 0.5510785)
(3.403069 0.74019903 0.54930651)
(3.40239 0.74019247 0.55019301)
(3.404345 0.74019557 0.54763561)
(3.403708 0.74019688 0.54847151)
(3.4049799 0.7401951 0.54679859)
(3.4056151 0.74019527 0.54596078)
(3.4062719 0.74019921 0.54508972)
(3.406929 0.74020392 0.54421753)
(3.407584 0.74020952 0.54334432)
(3.408237 0.74021578 0.5424701)
(3.3795869 0.73854148 0.57842642)
(3.3482561 0.7312023 0.61346418)
(3.250299 0.65566742 0.70722431)
(3.210439 0.62110043 0.74199587)
(3.2012601 0.61198211 0.74990052)
(3.175472 0.58343363 0.77205843)
(3.169358 0.57582182 0.77731788)
(3.161726 0.56579572 0.78389788)
(3.156956 0.55914152 0.78801912)
(3.4095211 0.74019492 0.54074413)
(3.40888 0.74020487 0.54160762)
(3.410161 0.74018562 0.53987962)
(3.410799 0.74017721 0.53901398)
(3.4119051 0.74015433 0.53750873)
(3.4113519 0.74016541 0.53826177)
(3.412456 0.74014378 0.53675491)
(3.4130061 0.74013382 0.53600031)
(3.4141819 0.74008501 0.53437978)
(3.413594 0.74010903 0.53519052)
(3.41503 0.74005443 0.5332042)
(3.4146061 0.74006963 0.5337922)
(3.415453 0.74003971 0.5326156)
(3.4158759 0.74002528 0.53202659)
(3.4162979 0.74001127 0.53143722)
(3.416719 0.73999768 0.53084731)
(3.41714 0.73998451 0.53025693)
(3.4175601 0.73997158 0.52966589)
(3.4185209 0.73991859 0.52830839)
(3.418041 0.73994488 0.52898753)
(3.4190011 0.7398929 0.5276286)
(3.4194789 0.73986769 0.52694827)
(3.420203 0.73982942 0.5259155)
(3.419842 0.73984838 0.5264321)
(3.4205639 0.73981059 0.52539861)
(3.4209249 0.73979223 0.5248813)
(3.4212849 0.73977399 0.5243637)
(3.4216449 0.73975623 0.52384567)
(3.422004 0.73973858 0.52332729)
(3.422363 0.7397213 0.52280861)
(3.423326 0.73965538 0.52140892)
(3.4228449 0.7396881 0.52210897)
(3.4238069 0.73962319 0.52070802)
(3.4242871 0.73959172 0.52000648)
(3.4250441 0.73953998 0.51889509)
(3.424665 0.73956567 0.51945102)
(3.425421 0.73951459 0.5183388)
(3.4257979 0.73948961 0.51778209)
(3.4261751 0.73946482 0.51722491)
(3.4265511 0.73944038 0.51666731)
(3.4269259 0.73941642 0.51610929)
(3.4273 0.7393927 0.51555091)
(3.4281721 0.73932391 0.5142476)
(3.427737 0.73935813 0.51489949)
(3.428606 0.73929012 0.51359499)
(3.429039 0.7392568 0.51294202)
(3.4296279 0.73921049 0.51205212)
(3.4293339 0.73923361 0.51249713)
(3.4299221 0.73918778 0.51160681)
(3.4302149 0.73916519 0.51116121)
(3.4305079 0.73914278 0.51071543)
(3.4308009 0.73912072 0.51026922)
(3.431093 0.73909873 0.50982279)
(3.431385 0.73907691 0.50937623)
(3.4325759 0.73897451 0.50754362)
(3.4322791 0.73899972 0.5080021)
(3.4319811 0.73902518 0.50846052)
(3.4316831 0.73905092 0.50891852)
(3.433629 0.73888528 0.50591332)
(3.4331031 0.73892951 0.50672883)
(3.434675 0.73879898 0.50427961)
(3.4341531 0.73884177 0.50509691)
(3.4365239 0.73862922 0.50136667)
(3.4360631 0.73867089 0.50209588)
(3.4356019 0.73871303 0.50282449)
(3.4351389 0.7387557 0.50355232)
(3.4386539 0.73843938 0.4979642)
(3.4381239 0.73848581 0.49881619)
(3.437592 0.7385329 0.49966729)
(3.437058 0.73858058 0.50051743)
(3.440593 0.7382521 0.4948245)
(3.44011 0.73829812 0.49561051)
(3.439626 0.73834461 0.4963958)
(3.439141 0.7383917 0.4971804)
(3.442651 0.73805249 0.49144411)
(3.4423089 0.73808497 0.49200851)
(3.443332 0.73798841 0.4903143)
(3.442992 0.7380203 0.49087939)
(3.441967 0.73811781 0.4925724)
(3.4416239 0.73815089 0.49313599)
(3.4412811 0.73818427 0.49369919)
(3.440937 0.73821813 0.49426201)
(3.4446599 0.73785353 0.48809609)
(3.444329 0.73788673 0.48865119)
(3.4439969 0.7379204 0.48920599)
(3.443665 0.73795432 0.48976031)
(3.4490631 0.73739541 0.48059031)
(3.448791 0.73742253 0.48106131)
(3.448518 0.73744988 0.48153201)
(3.448245 0.7374773 0.4820025)
(3.4479721 0.73750502 0.48247269)
(3.4476981 0.73753297 0.4829427)
(3.4474239 0.73756099 0.4834125)
(3.44715 0.73758942 0.48388201)
(3.4468739 0.73761803 0.48435119)
(3.446599 0.73764658 0.48482019)
(3.4463229 0.73767549 0.48528889)
(3.4460471 0.73770481 0.48575741)
(3.445771 0.73773402 0.48622569)
(3.445493 0.73776358 0.48669371)
(3.4452159 0.73779339 0.4871614)
(3.4449379 0.73782343 0.48762891)
(3.44928 0.73737448 0.48021489)
(3.4526539 0.73700172 0.47428581)
(3.452244 0.73704582 0.47501519)
(3.4518321 0.73709053 0.47574401)
(3.4514201 0.73713553 0.47647229)
(3.4510059 0.73718113 0.47719991)
(3.450592 0.73722708 0.47792709)
(3.450176 0.73727357 0.47865361)
(3.44976 0.73732072 0.47937959)
(3.4541559 0.73684359 0.4715988)
(3.4537821 0.73688263 0.47227129)
(3.453407 0.73692179 0.47294319)
(3.4530311 0.7369616 0.47361481)
(3.457437 0.736476 0.46562079)
(3.4570589 0.73651707 0.46631631)
(3.456681 0.7365585 0.4670113)
(3.4563019 0.7366004 0.46770591)
(3.4559219 0.73664272 0.46839991)
(3.4555409 0.7366854 0.46909341)
(3.454777 0.736772 0.47047901)
(3.4543941 0.73681593 0.47117111)
(3.4551599 0.73672849 0.46978649)
(3.4595821 0.73622692 0.46162909)
(3.4593151 0.73625731 0.46212891)
(3.459048 0.73628801 0.46262851)
(3.458781 0.73631883 0.46312779)
(3.458513 0.73634982 0.46362689)
(3.458245 0.73638099 0.46412581)
(3.4579761 0.73641253 0.46462429)
(3.457706 0.73644412 0.4651227)
(3.460182 0.73615962 0.46050069)
(3.459882 0.73619312 0.46106511)
(3.4625959 0.73587531 0.4559043)
(3.462316 0.73590761 0.4564417)
(3.4620359 0.7359401 0.45697889)
(3.461755 0.73597288 0.4575159)
(3.461473 0.7360059 0.45805249)
(3.4611919 0.7360391 0.4585889)
(3.4609089 0.7360726 0.45912501)
(3.4606259 0.73610628 0.4596608)
(3.462986 0.73583078 0.45515251)
(3.463376 0.7357868 0.45440009)
(3.4659879 0.73548073 0.4492906)
(3.465673 0.73551691 0.4499132)
(3.4653571 0.73555332 0.45053551)
(3.46504 0.73558998 0.45115739)
(3.4647231 0.73562711 0.45177889)
(3.4644051 0.73566449 0.45240009)
(3.464087 0.73570222 0.45302099)
(3.4637671 0.73574013 0.4536415)
(3.46786 0.73525512 0.4455618)
(3.4673941 0.73531038 0.44649521)
(3.4669271 0.73536652 0.44742781)
(3.4664581 0.73542333 0.44835961)
(3.468585 0.73517019 0.44410011)
(3.4682231 0.73521239 0.44483119)
(3.4690981 0.73510551 0.44306111)
(3.468842 0.7351377 0.44358069)
(3.4713089 0.73484647 0.43852961)
(3.471035 0.73487788 0.43909699)
(3.4707601 0.73490977 0.4396641)
(3.470484 0.73494172 0.44023091)
(3.4702079 0.73497403 0.44079751)
(3.4699309 0.73500651 0.44136381)
(3.4696541 0.73503917 0.44192991)
(3.4693761 0.7350722 0.44249561)
(3.472738 0.73466861 0.43555579)
(3.4723821 0.73471242 0.43629989)
(3.4720249 0.73475671 0.43704361)
(3.471668 0.73480141 0.43778679)
(3.474196 0.73449892 0.43247801)
(3.4738331 0.7345407 0.43324819)
(3.473469 0.73458278 0.4340179)
(3.473104 0.73462552 0.43478709)
(3.4758699 0.7342934 0.4288981)
(3.4754541 0.73434389 0.42979401)
(3.4750359 0.73439503 0.43068931)
(3.474617 0.7344467 0.431584)
(3.477119 0.73414582 0.4261882)
(3.4767039 0.7341944 0.42709219)
(3.4775341 0.73409778 0.42528361)
(3.4762881 0.73424357 0.42799541)
(3.47893 0.73392421 0.42220691)
(3.4785819 0.73396689 0.42297679)
(3.4782341 0.7340101 0.4237462)
(3.4778841 0.73405367 0.4245151)
(3.4806759 0.73371547 0.41829929)
(3.480242 0.73376662 0.41927731)
(3.4798059 0.73381847 0.4202545)
(3.4793689 0.73387092 0.42123109)
(3.4814789 0.73361778 0.41648111)
(3.4810779 0.7336663 0.4173905)
(3.483258 0.73339909 0.4124001)
(3.482816 0.73345268 0.41342151)
(3.482372 0.73350698 0.41444209)
(3.481926 0.73356199 0.41546199)
(3.483511 0.7333709 0.41181451)
(3.483763 0.73334289 0.41122851)
(3.4859071 0.73309427 0.40618771)
(3.485682 0.73311973 0.40672249)
(3.485456 0.7331453 0.40725699)
(3.48523 0.73317111 0.40779141)
(3.485003 0.73319709 0.40832549)
(3.484776 0.73322338 0.40885949)
(3.484549 0.73324972 0.40939319)
(3.4843211 0.73327643 0.4099268)
(3.4874129 0.73290831 0.40257931)
(3.4870379 0.73295403 0.40348229)
(3.4866619 0.73300022 0.40438461)
(3.486285 0.73304689 0.40528649)
(3.4878049 0.7328667 0.40163109)
(3.4881949 0.73282582 0.4006823)
(3.4892449 0.73269832 0.39810941)
(3.4889841 0.73272967 0.39875299)
(3.4887209 0.73276138 0.39939639)
(3.4884591 0.73279351 0.40003949)
(3.490268 0.73258221 0.3955757)
(3.4900141 0.73261082 0.39620951)
(3.489758 0.73263967 0.39684311)
(3.489502 0.73266882 0.3974764)
(3.490895 0.73250532 0.3940109)
(3.490582 0.73254353 0.39479351)
(3.4920969 0.73237509 0.39097601)
(3.491797 0.73240721 0.39173529)
(3.491497 0.73243952 0.3924942)
(3.4911959 0.73247218 0.3932527)
(3.493207 0.73224372 0.38813561)
(3.4929309 0.73227608 0.38884619)
(3.4926529 0.73230869 0.38955641)
(3.4923749 0.73234183 0.39026639)
(3.4939179 0.73216867 0.38629699)
(3.4935629 0.73220599 0.3872166)
(3.495244 0.7320165 0.38282979)
(3.4949141 0.73205388 0.3836973)
(3.4945829 0.73209172 0.38456431)
(3.494251 0.73213011 0.3854309)
(3.4957559 0.73196441 0.38147569)
(3.4955001 0.73199028 0.38215289)
(3.497267 0.73179501 0.37743089)
(3.496891 0.73183638 0.378443)
(3.4965141 0.73187852 0.37945449)
(3.496136 0.73192108 0.38046539)
(3.4976511 0.73175758 0.37639171)
(3.499306 0.73157752 0.37185249)
(3.4991 0.73159927 0.37242049)
(3.4988949 0.73162133 0.3729884)
(3.4986889 0.73164362 0.37355611)
(3.498482 0.73166603 0.37412351)
(3.498275 0.73168862 0.37469089)
(3.4980669 0.73171139 0.375258)
(3.497859 0.7317344 0.37582499)
(3.501276 0.73137528 0.3663235)
(3.5010769 0.7313956 0.36688891)
(3.5008769 0.73141599 0.36745411)
(3.5006771 0.73143673 0.3680191)
(3.5004771 0.73145747 0.36858401)
(3.5002761 0.73147857 0.3691487)
(3.5000739 0.73149979 0.36971319)
(3.499872 0.73152113 0.37027749)
(3.501915 0.73131299 0.36450091)
(3.501596 0.73134392 0.36541241)
(3.5031531 0.73119003 0.36092001)
(3.502845 0.73122013 0.36181581)
(3.5025361 0.73125058 0.36271131)
(3.5022261 0.73128152 0.3636063)
(3.5035329 0.73114961 0.35980809)
(3.5033431 0.73116982 0.36036411)
(3.503912 0.73110992 0.3586956)
(3.5046639 0.73103249 0.35646871)
(3.5042889 0.73107082 0.35758251)
(3.506716 0.73084712 0.35027179)
(3.5065229 0.73086321 0.35086131)
(3.50633 0.73087949 0.35145059)
(3.5061359 0.730896 0.35203969)
(3.5059431 0.73091263 0.35262871)
(3.505748 0.73092949 0.35321751)
(3.505553 0.73094648 0.3538062)
(3.505358 0.73096371 0.35439461)
(3.5075631 0.73075902 0.3476564)
(3.5073521 0.73078072 0.3483105)
(3.5071411 0.7308026 0.34896451)
(3.506928 0.73082483 0.34961829)
(3.50861 0.73067141 0.3443788)
(3.5083499 0.73069292 0.34519869)
(3.5080891 0.7307145 0.3460182)
(3.5078261 0.73073661 0.34683749)
(3.5094969 0.73058689 0.34156129)
(3.5092771 0.73060763 0.34226599)
(3.5090549 0.73062861 0.34297061)
(3.5088329 0.73064989 0.34367481)
(3.510628 0.73048872 0.33791149)
(3.5103469 0.73051262 0.33882451)
(3.5100651 0.73053688 0.33973709)
(3.5097821 0.73056167 0.3406494)
(3.5111711 0.73044121 0.33613789)
(3.5109 0.7304647 0.33702481)
(3.5122371 0.73034108 0.33260241)
(3.511972 0.73036551 0.3334868)
(3.5117061 0.73039031 0.33437079)
(3.5114391 0.73041552 0.33525449)
(3.5125051 0.73032349 0.33170471)
(3.5127721 0.73030633 0.33080661)
(3.5132761 0.73026288 0.32909751)
(3.513025 0.73028439 0.32995221)
(3.514528 0.73017949 0.32479161)
(3.5142169 0.73019952 0.32586879)
(3.513905 0.73022008 0.32694551)
(3.513592 0.73024118 0.32802179)
(3.515136 0.73012322 0.32266429)
(3.514832 0.73015112 0.3237282)
(3.5162139 0.73004138 0.31883189)
(3.516036 0.73005462 0.31947109)
(3.5165701 0.7300157 0.31755319)
(3.516392 0.73002839 0.3181926)
(3.515857 0.73006779 0.32010999)
(3.515677 0.73008138 0.3207489)
(3.515497 0.73009509 0.3213875)
(3.515317 0.73010898 0.32202601)
(3.516963 0.72998452 0.31612411)
(3.516767 0.73000002 0.3168388)
(3.518285 0.72989309 0.31125319)
(3.518121 0.72990388 0.31186259)
(3.517957 0.7299149 0.31247181)