/*--------------------------------*- C++ -*----------------------------------*\
| =========                 |                                                 |
| \\      /  F ield         | OpenFOAM: The Open Source CFD Toolbox           |
|  \\    /   O peration     | Version:  v1812                                 |
|   \\  /    A nd           | Web:      www.OpenFOAM.com                      |
|    \\/     M anipulation  |                                                 |
\*---------------------------------------------------------------------------*/
FoamFile
{
    version     2.0;
    format      ascii;
    class       extendedFeatureEdgeMesh;
    location    "constant/extendedFeatureEdgeMesh";
    object      fastback.extendedFeatureEdgeMesh;
}
// * * * * * * * * * * * * * * * * * * * * * * * * * * * * * * * * * * * * * //

// points

9566
(
(3.1527431 0.55299997 0.791668)
(2.4826231 0.90794992 0.64985561)
(2.4826231 0.90794992 -0.64985561)
(2.5512891 0.88935632 0.65623438)
(2.5512891 0.88935632 -0.65623438)
(2.795893 0.93631089 0.54631633)
(2.795893 0.93631089 -0.54631633)
(1.872149 1.000586 0.61234188)
(1.872149 1.000586 -0.612342)
(2.599483 0.68336779 0.74122339)
(2.6578741 0.68819177 -0.7361719)
(2.599483 0.68336779 -0.74122328)
(2.6578741 0.68819177 0.7361719)
(1.816993 0.65793282 0.77448159)
(1.816993 0.65793282 -0.77448148)
(1.636465 0.65192568 -0.77711499)
(1.756538 1.0056 -0.60978341)
(1.756538 1.0056 0.60978341)
(1.636465 0.65192568 0.77711499)
(3.1527431 0.55299968 -0.791668)
(1.53 0.55299997 -0.85672128)
(1.53 0.64800882 -0.77790183)
(1.53 0.99525207 -0.61543638)
(1.53 1.002757 -0.61572772)
(1.53 1.002756 0.61572802)
(1.53 0.99525231 0.61543638)
(1.53 0.64800882 0.77790183)
(1.53 0.55300009 0.85672122)
(2.86323 0.96689522 -0.2308244)
(2.8630271 0.96678478 -0.2333288)
(2.862823 0.96667337 -0.2358235)
(2.8626089 0.96655637 -0.2384025)
(2.8634319 0.96700579 -0.22828069)
(2.863632 0.96711528 -0.2257266)
(2.8623979 0.96644068 -0.24091861)
(2.8621831 0.96632278 -0.2434435)
(2.863826 0.96722108 -0.22322381)
(2.8619649 0.96620357 -0.2459667)
(2.8617389 0.96608001 -0.24854711)
(2.8615179 0.96595907 -0.25103271)
(2.8612931 0.96583599 -0.2535345)
(2.864397 0.96753258 -0.2156281)
(2.8642099 0.96743047 -0.2181575)
(2.8640161 0.9673245 -0.22073729)
(2.8717921 0.97157282 0.0050742808)
(2.8717949 0.97157478 0.002495121)
(2.8649459 0.96783209 0.20799731)
(2.8651209 0.96792728 0.20549729)
(2.864763 0.96773231 0.210582)
(2.8645821 0.96763349 0.2130985)
(2.864397 0.96753258 0.21562859)
(2.8717871 0.9715696 0.0076135262)
(2.8447261 0.95712131 0.3816421)
(2.845166 0.95733929 0.37916321)
(2.845602 0.95755619 0.37667111)
(2.84604 0.95777452 0.3741391)
(2.846457 0.95798361 0.3716878)
(2.8468709 0.95819181 0.36922359)
(2.8447261 0.95712107 -0.38164249)
(2.8442819 0.95690161 -0.38411519)
(2.8610611 0.96570867 -0.25608289)
(2.8642099 0.96743047 0.2181578)
(2.8477001 0.95861071 -0.36418751)
(2.8472891 0.95840281 -0.3667005)
(2.8468709 0.95819181 -0.36922419)
(2.846457 0.95798361 -0.3716886)
(2.8481009 0.95881408 -0.36170399)
(2.8484941 0.959014 -0.3592363)
(2.848897 0.95922011 -0.35666761)
(2.8460391 0.95777452 -0.3741399)
(2.849283 0.95941758 -0.3541806)
(2.845602 0.95755619 -0.37667179)
(2.845166 0.95733929 -0.37916371)
(2.860826 0.96557999 -0.25862569)
(2.8626101 0.96655637 0.2384019)
(2.862823 0.96667337 0.23582301)
(2.863028 0.96678478 0.2333283)
(2.86323 0.96689522 0.2308239)
(2.8623979 0.96644068 0.2409181)
(2.8621831 0.9663229 0.243443)
(2.8634319 0.96700579 0.22827999)
(2.863632 0.96711528 0.2257264)
(2.8619649 0.96620357 0.24596611)
(2.863826 0.96722108 0.2232237)
(2.8640161 0.9673245 0.2207371)
(2.8617389 0.96608001 0.2485466)
(2.860826 0.96557999 0.25862521)
(2.8610611 0.96570867 0.25608239)
(2.8612931 0.96583593 0.25353411)
(2.8615179 0.96595907 0.2510322)
(2.8605919 0.96545202 0.26112431)
(2.8603561 0.96532267 0.2636131)
(2.8601079 0.96518731 0.2661854)
(2.859863 0.96505332 0.26870021)
(2.84729 0.95840281 0.36669981)
(2.849664 0.95961338 -0.35168841)
(2.8500409 0.95980787 -0.34918711)
(2.85042 0.96000367 -0.34664181)
(2.850781 0.96019131 -0.3441779)
(2.8605919 0.96545202 -0.26112491)
(2.8603561 0.96532267 -0.2636137)
(2.8601079 0.96518731 -0.26618621)
(2.859863 0.96505332 -0.2687009)
(2.8596151 0.96491718 0.2712189)
(2.8593631 0.96477968 0.2737349)
(2.8591011 0.96463668 0.27631509)
(2.8588459 0.96449763 0.2787987)
(2.8477001 0.95861071 0.36418721)
(2.8481009 0.95881408 0.3617036)
(2.8484941 0.95901412 0.35923579)
(2.848897 0.95922011 0.35666701)
(2.849283 0.95941758 0.35418001)
(2.8596151 0.96491718 -0.2712197)
(2.8593631 0.96477968 -0.27373591)
(2.8591011 0.96463668 -0.27631599)
(2.8588459 0.96449739 -0.2787995)
(2.856936 0.96345979 0.29643321)
(2.857219 0.96361297 0.2939212)
(2.8575039 0.96376753 0.29135621)
(2.8577771 0.96391523 0.2888743)
(2.8566489 0.96330488 0.29894471)
(2.856359 0.96314842 0.3014527)
(2.858047 0.9640618 0.28638139)
(2.8583181 0.96420962 0.28384039)
(2.8560569 0.96298552 0.3040306)
(2.8585861 0.96435559 0.28129861)
(2.855762 0.96282679 0.30651101)
(2.849664 0.95961338 0.35168779)
(2.85114 0.96037787 -0.34170181)
(2.8585861 0.96435559 -0.28129941)
(2.8566489 0.96330488 -0.2989457)
(2.856359 0.96314842 -0.3014538)
(2.8560569 0.96298528 -0.30403179)
(2.855762 0.96282673 -0.30651209)
(2.856936 0.96345979 -0.2964341)
(2.857219 0.96361297 -0.29392219)
(2.8575039 0.96376753 -0.2913571)
(2.8554621 0.96266508 -0.3090083)
(2.8577771 0.96391511 -0.2888751)
(2.8551531 0.96249932 -0.31154251)
(2.8548391 0.96233141 -0.3140797)
(2.854528 0.962165 -0.31656519)
(2.854214 0.96199769 -0.31903899)
(2.8538849 0.96182293 -0.3215951)
(2.853559 0.96164942 -0.3241027)
(2.8532281 0.96147442 -0.32660559)
(2.8528941 0.96129769 -0.32910419)
(2.852545 0.96111381 -0.3316789)
(2.852205 0.96093488 -0.33415401)
(2.8518579 0.96075302 -0.33664519)
(2.8515019 0.96056682 -0.33916989)
(2.85042 0.96000367 0.34664121)
(2.850781 0.96019143 0.3441774)
(2.85114 0.96037811 0.3417013)
(2.8515019 0.96056688 0.33916929)
(2.8500409 0.95980787 0.34918651)
(2.8518579 0.96075308 0.33664459)
(2.852205 0.96093512 0.33415329)
(2.852545 0.96111393 0.331678)
(2.8528941 0.96129781 0.32910311)
(2.8532281 0.96147448 0.3266046)
(2.853559 0.96164948 0.32410181)
(2.8538849 0.96182299 0.321594)
(2.8554621 0.96266508 0.30900741)
(2.8551531 0.96249938 0.3115412)
(2.8548391 0.96233141 0.31407899)
(2.8583181 0.96420938 -0.2838414)
(2.858047 0.96406162 -0.28638211)
(2.854214 0.96199769 0.31903791)
(2.854528 0.962165 0.31656441)
(3.4056151 0.74019527 0.54596078)
(3.4062719 0.74019921 0.54508972)
(3.406929 0.74020392 0.54421753)
(3.407584 0.74020952 0.54334432)
(3.403069 0.74019903 0.54930651)
(3.403708 0.74019688 0.54847151)
(3.404345 0.74019557 0.54763561)
(3.4049799 0.7401951 0.54679859)
(3.4017079 0.74018693 0.5510785)
(3.40239 0.74019247 0.55019301)
(3.397676 0.7400434 0.55626231)
(3.3981831 0.74005967 0.55561632)
(3.398689 0.74007642 0.55496973)
(3.399194 0.74009359 0.5543226)
(3.399698 0.74011141 0.55367488)
(3.400202 0.74012947 0.55302662)
(3.4007051 0.74014819 0.55237782)
(3.401207 0.74016732 0.55172849)
(3.3941951 0.73991078 0.56066191)
(3.3946321 0.73992622 0.56011331)
(3.3950679 0.73994201 0.55956441)
(3.395504 0.73995799 0.55901498)
(3.3959401 0.73997438 0.5584653)
(3.3963749 0.73999119 0.55791521)
(3.3968091 0.74000829 0.55736458)
(3.397243 0.7400257 0.5568136)
(3.3920901 0.73975682 0.56328839)
(3.3926179 0.73979449 0.56263268)
(3.3931439 0.73983282 0.56197631)
(3.3936701 0.73987162 0.56131941)
(3.3870151 0.73938781 0.56952709)
(3.3876531 0.73943138 0.56875002)
(3.3882899 0.73947579 0.56797218)
(3.388926 0.73952079 0.56719363)
(3.3895609 0.73956662 0.56641418)
(3.3901949 0.73961312 0.56563401)
(3.3908279 0.73966032 0.56485289)
(3.3914599 0.73970819 0.56407112)
(3.386261 0.73929971 0.57044291)
(3.3866379 0.73934358 0.56998521)
(3.3823831 0.73884821 0.57510728)
(3.38287 0.73890322 0.57452571)
(3.3833561 0.7389586 0.57394379)
(3.383842 0.73901439 0.5733614)
(3.384326 0.73907071 0.57277858)
(3.3848109 0.73912728 0.57219541)
(3.3852949 0.73918438 0.57161158)
(3.385778 0.73924178 0.57102752)
(3.3795869 0.73854148 0.57842642)
(3.3802879 0.738617 0.57759798)
(3.3809869 0.73869318 0.57676858)
(3.381686 0.73877031 0.5759384)
(3.372637 0.73744982 0.58652681)
(3.3730421 0.73751253 0.586061)
(3.373446 0.73757547 0.58559501)
(3.3738501 0.73763877 0.58512872)
(3.374253 0.73770243 0.5846622)
(3.374656 0.73776609 0.58419538)
(3.3750579 0.73783022 0.58372831)
(3.3754611 0.73789459 0.58326089)
(3.3758631 0.73795921 0.5827933)
(3.376265 0.73802412 0.58232528)
(3.3766661 0.7380892 0.5818572)
(3.3770671 0.73815459 0.58138871)
(3.3774669 0.73822039 0.58091992)
(3.377867 0.73828632 0.58045101)
(3.378267 0.73835248 0.57998168)
(3.3786659 0.73841912 0.57951212)
(3.371433 0.73727262 0.58790892)
(3.372036 0.73736089 0.58721811)
(3.365164 0.73595309 0.5950135)
(3.365952 0.73611462 0.59412873)
(3.366739 0.73627698 0.59324312)
(3.3675251 0.73644048 0.59235638)
(3.368309 0.73660493 0.59146881)
(3.369092 0.73677027 0.59058022)
(3.369874 0.73693669 0.58969069)
(3.3706541 0.73710418 0.58880031)
(3.3637819 0.73568839 0.59655911)
(3.3644741 0.73582041 0.59578669)
(3.356946 0.73389387 0.60410267)
(3.3573761 0.7340039 0.60363322)
(3.357806 0.73411423 0.60316342)
(3.3582349 0.73422492 0.60269332)
(3.358664 0.73433572 0.60222298)
(3.359092 0.73444688 0.6017524)
(3.3595209 0.73455828 0.60128158)
(3.3599479 0.73466998 0.60081053)
(3.3603759 0.73478198 0.60033911)
(3.3608029 0.73489428 0.59986752)
(3.3612299 0.73500693 0.59939557)
(3.361656 0.73511982 0.59892362)
(3.362082 0.73523289 0.5984512)
(3.3625081 0.73534638 0.59797847)
(3.3629329 0.73545998 0.59750569)
(3.363358 0.73557413 0.59703249)
(3.355937 0.73365182 0.60520279)
(3.356442 0.7337727 0.60465288)
(3.3482561 0.7312023 0.61346418)
(3.3487389 0.73135281 0.61295009)
(3.3492219 0.73150373 0.61243558)
(3.349705 0.73165488 0.61192089)
(3.3501861 0.73180652 0.61140579)
(3.350668 0.73195833 0.61089039)
(3.3511491 0.7321105 0.61037493)
(3.35163 0.73226303 0.60985899)
(3.3521099 0.73241597 0.60934281)
(3.3525901 0.73256928 0.60882628)
(3.35307 0.73272288 0.60830963)
(3.353549 0.73287678 0.60779238)
(3.354027 0.73303109 0.60727513)
(3.3545051 0.73318583 0.60675752)
(3.3549831 0.7333408 0.60623962)
(3.3554599 0.73349613 0.60572129)
(3.3388641 0.72755748 0.62332112)
(3.339416 0.72776908 0.62274867)
(3.339968 0.72798121 0.62217587)
(3.340519 0.72819358 0.62160301)
(3.341069 0.72840661 0.62102962)
(3.341619 0.72862011 0.62045592)
(3.342169 0.72883391 0.61988193)
(3.3427179 0.72904819 0.61930758)
(3.343266 0.72926289 0.61873293)
(3.3438139 0.72947818 0.61815798)
(3.344362 0.72969389 0.61758268)
(3.344909 0.72991008 0.61700708)
(3.3454549 0.73012668 0.61643112)
(3.3460009 0.73034382 0.6158548)
(3.3465459 0.73056138 0.61527818)
(3.347091 0.73077953 0.61470127)
(3.336436 0.72630668 0.62582809)
(3.337044 0.72661859 0.62520188)
(3.337651 0.72693098 0.62457532)
(3.338258 0.72724402 0.62394828)
(3.3308959 0.7236973 0.63149118)
(3.3313601 0.72391301 0.63102043)
(3.329968 0.72326678 0.63243228)
(3.3318231 0.72412908 0.63054937)
(3.3290379 0.72283751 0.6333726)
(3.3322859 0.72434539 0.63007808)
(3.3327479 0.72456199 0.62960672)
(3.3332109 0.72477901 0.62913501)
(3.333672 0.72499633 0.62866318)
(3.3341341 0.72521389 0.62819117)
(3.334595 0.72543192 0.62771899)
(3.3350561 0.72565007 0.62724662)
(3.335516 0.72586858 0.62677401)
(3.3359759 0.72608751 0.62630123)
(3.3222251 0.71872699 0.64020097)
(3.323081 0.71923733 0.6393494)
(3.323936 0.71974868 0.63849717)
(3.324789 0.72026098 0.63764453)
(3.3256409 0.72077441 0.63679129)
(3.3264921 0.72128862 0.63593751)
(3.327342 0.7218039 0.63508302)
(3.328191 0.7223202 0.63422811)
(3.3183961 0.71660298 0.64399183)
(3.319356 0.71713221 0.64304513)
(3.320313 0.71766251 0.64209777)
(3.32127 0.71819413 0.64114982)
(3.3119431 0.71205842 0.65030932)
(3.312753 0.71262372 0.64952099)
(3.3135619 0.7131896 0.64873219)
(3.3143699 0.7137565 0.6479432)
(3.315177 0.71432412 0.64715368)
(3.315984 0.71489263 0.64636391)
(3.3167889 0.71546203 0.64557362)
(3.3175931 0.71603209 0.64478278)
(3.3075311 0.70878577 0.65457958)
(3.308084 0.70919353 0.6540463)
(3.3086369 0.70960158 0.65351301)
(3.3091891 0.71001011 0.65297937)
(3.309741 0.71041888 0.65244567)
(3.310292 0.71082819 0.6519118)
(3.310843 0.71123791 0.6513778)
(3.311393 0.71164793 0.65084362)
(3.3040969 0.70561999 0.6578775)
(3.3049569 0.70641011 0.65705347)
(3.3058159 0.70720112 0.65622908)
(3.306674 0.70799297 0.65540451)
(3.2963469 0.698865 0.66524267)
(3.2973199 0.69970548 0.66432339)
(3.2982919 0.7005471 0.66340369)
(3.299263 0.70138967 0.66248357)
(3.3002329 0.70223361 0.66156322)
(3.3012011 0.70307839 0.66064233)
(3.3021679 0.70392448 0.65972108)
(3.303133 0.70477158 0.65879953)
(3.2918019 0.69435012 0.66951418)
(3.292372 0.69491333 0.66898072)
(3.2929411 0.69547677 0.66844708)
(3.293509 0.69604069 0.66791332)
(3.2940781 0.69660491 0.66737938)
(3.294646 0.69716942 0.66684538)
(3.295213 0.6977343 0.66631132)
(3.2957799 0.69829953 0.66577709)
(3.284976 0.68769473 0.67586851)
(3.2858329 0.68852413 0.67507499)
(3.2866881 0.6893543 0.67428142)
(3.2875431 0.69018513 0.67348742)
(3.2883959 0.69101661 0.67269331)
(3.2892489 0.69184887 0.6718989)
(3.2901011 0.69268191 0.67110431)
(3.290952 0.6935156 0.67030942)
(3.2805541 0.68286592 0.67994869)
(3.281662 0.68407148 0.67892921)
(3.282768 0.68527818 0.67790931)
(3.2838731 0.68648601 0.67688912)
(3.272774 0.67542541 0.68706328)
(3.2737501 0.67635268 0.68617499)
(3.274725 0.6772809 0.68528652)
(3.2756989 0.6782099 0.68439758)
(3.2766719 0.67913949 0.68350852)
(3.2776439 0.68006998 0.68261898)
(3.278615 0.68100113 0.68172932)
(3.2795849 0.68193322 0.68083918)
(3.2697611 0.67228591 0.68979788)
(3.270515 0.67307031 0.68911451)
(3.2712691 0.67385489 0.68843102)
(3.272022 0.67463988 0.68774718)
(3.2663269 0.66889077 0.69290203)
(3.2671871 0.66973889 0.69212627)
(3.2680459 0.67058742 0.69135052)
(3.268904 0.67143643 0.69057429)
(3.2589271 0.66277242 0.69954711)
(3.2598541 0.66353559 0.69871742)
(3.260781 0.66429919 0.6978876)
(3.2617071 0.66506332 0.69705749)
(3.2626319 0.66582787 0.69622701)
(3.263557 0.66659302 0.69539618)
(3.2644811 0.6673584 0.69456518)
(3.265404 0.66812438 0.69373381)
(3.250299 0.65566742 0.70722431)
(3.25138 0.65655363 0.70626599)
(3.252461 0.6574403 0.7053073)
(3.253541 0.65832752 0.70434821)
(3.2546189 0.65921551 0.70338869)
(3.255697 0.6601038 0.70242888)
(3.2567749 0.66099268 0.70146859)
(3.2578509 0.66188228 0.70050812)
(3.247329 0.65325218 0.70985121)
(3.248313 0.65405422 0.70898211)
(3.2399931 0.64729291 0.71631122)
(3.240911 0.64803672 0.71550441)
(3.2418301 0.6487807 0.71469748)
(3.242748 0.64952523 0.71389037)
(3.243665 0.65026993 0.71308303)
(3.2445819 0.65101492 0.71227539)
(3.2454979 0.65176028 0.71146762)
(3.2464139 0.65250611 0.71065962)
(3.2364559 0.64441609 0.71941042)
(3.2373409 0.64513493 0.71863592)
(3.238225 0.645854 0.71786112)
(3.239109 0.64657319 0.7170862)
(3.230376 0.6391446 0.72472042)
(3.2318981 0.64046133 0.72339362)
(3.233418 0.64177883 0.7220664)
(3.2349379 0.6430971 0.72073859)
(3.223974 0.63361561 0.73028749)
(3.2255759 0.63499671 0.72889638)
(3.2271769 0.63637859 0.72750479)
(3.2287769 0.63776118 0.7261129)
(3.2196791 0.62963682 0.73401088)
(3.2207539 0.63063109 0.73308033)
(3.221828 0.63162559 0.73214948)
(3.2229011 0.63262039 0.73121858)
(3.2150619 0.62536639 0.73800468)
(3.216217 0.62643361 0.73700649)
(3.2127509 0.62323302 0.74000072)
(3.217371 0.62750101 0.73600823)
(3.2185259 0.62856883 0.73500967)
(3.210439 0.62110043 0.74199587)
(3.2012601 0.61198211 0.74990052)
(3.203162 0.61386943 0.74826461)
(3.2050631 0.61575723 0.74662828)
(3.2069631 0.61764562 0.74499178)
(3.2088621 0.61953431 0.74335521)
(3.192977 0.60334581 0.75702)
(3.195729 0.6062637 0.75465637)
(3.1874239 0.5973531 0.76178998)
(3.1877699 0.59772462 0.76149273)
(3.175472 0.58343363 0.77205843)
(3.178241 0.58674592 0.76967847)
(3.169358 0.57582182 0.77731788)
(3.171613 0.57866782 0.77537727)
(3.1640999 0.56896681 0.78184873)
(3.1657 0.57109118 0.78046918)
(3.161726 0.56579572 0.78389788)
(3.1629131 0.56738138 0.78287321)
(3.156956 0.55914152 0.78801912)
(3.1583829 0.56113732 0.78678572)
(3.152503 0.55299997 0.79169673)
(3.1544039 0.55542469 0.79022849)
(3.3506739 0.73199582 -0.61088401)
(3.350215 0.731857 -0.61137557)
(3.3511331 0.73213482 -0.61039197)
(3.3515921 0.73227417 -0.60989988)
(3.3520501 0.73241383 -0.60940748)
(3.3525081 0.73255378 -0.60891491)
(3.3529651 0.73269421 -0.60842192)
(3.3534219 0.73283482 -0.60792881)
(3.353879 0.73297572 -0.60743529)
(3.3543351 0.73311698 -0.60694158)
(3.3547909 0.73325861 -0.60644752)
(3.355247 0.73340052 -0.60595328)
(3.3557019 0.73354268 -0.6054588)
(3.3561571 0.7336852 -0.60496402)
(3.356611 0.73382801 -0.60446882)
(3.357065 0.73397118 -0.60397351)
(3.358186 0.73423362 -0.60274678)
(3.357626 0.73410207 -0.60336041)
(3.359751 0.73462808 -0.60102779)
(3.358969 0.73443037 -0.60188782)
(3.360532 0.73482668 -0.60016721)
(3.361311 0.73502642 -0.59930563)
(3.3620889 0.73522699 -0.59844321)
(3.3628659 0.73542851 -0.59757978)
(3.363642 0.73563093 -0.59671569)
(3.3644159 0.73583442 -0.59585059)
(3.365844 0.73610371 -0.59424978)
(3.3651309 0.73596859 -0.59505057)
(3.367326 0.73640478 -0.59258008)
(3.366586 0.7362538 -0.59341538)
(3.3680661 0.73655659 -0.59174401)
(3.368804 0.73670948 -0.59090698)
(3.3695409 0.73686308 -0.59006917)
(3.3702769 0.73701757 -0.58923048)
(3.371012 0.73717302 -0.58839101)
(3.3717461 0.73732919 -0.58755058)
(3.3729761 0.7375083 -0.58613682)
(3.3723609 0.73741847 -0.58684403)
(3.3768849 0.73812437 -0.58160043)
(3.3764961 0.73806173 -0.58205521)
(3.377275 0.73818737 -0.58114529)
(3.376106 0.7379992 -0.58250982)
(3.3776629 0.73825067 -0.58069003)
(3.3745439 0.73775172 -0.58432531)
(3.3737609 0.73762947 -0.58523148)
(3.378052 0.73831421 -0.58023441)
(3.3753259 0.73787498 -0.58341801)
(3.3784399 0.73837799 -0.57977861)
(3.3788271 0.738442 -0.57932252)
(3.379215 0.73850632 -0.57886612)
(3.37974 0.73856169 -0.5782457)
(3.3810749 0.73870587 -0.57666528)
(3.380408 0.73863351 -0.57745588)
(3.3817401 0.73877913 -0.57587397)
(3.382405 0.7388531 -0.57508183)
(3.3833621 0.7389611 -0.57393688)
(3.382884 0.73890692 -0.57450962)
(3.3838401 0.73901558 -0.57336378)
(3.3843169 0.73907071 -0.57279032)
(3.384793 0.73912603 -0.57221627)
(3.3852689 0.73918182 -0.57164192)
(3.385745 0.7392379 -0.57106709)
(3.38622 0.73929453 -0.57049191)
(3.3870151 0.73938781 -0.56952709)
(3.3866179 0.7393409 -0.57000959)
(3.3883581 0.73947817 -0.56788909)
(3.387687 0.73943257 -0.56870848)
(3.3890281 0.73952472 -0.5670687)
(3.3896959 0.73957193 -0.56624752)
(3.3903639 0.73961991 -0.5654254)
(3.391031 0.73966873 -0.56460232)
(3.391696 0.73971832 -0.5637784)
(3.39236 0.73976862 -0.56295371)
(3.3934579 0.73984838 -0.56158459)
(3.392909 0.7398082 -0.56226939)
(3.3940051 0.73988909 -0.5608992)
(3.394552 0.73993027 -0.56021309)
(3.3957779 0.73997188 -0.55866998)
(3.39537 0.73995781 -0.55918479)
(3.3961849 0.73998642 -0.55815488)
(3.3949611 0.73994392 -0.55969912)
(3.3965919 0.7400012 -0.55763948)
(3.3969989 0.74001628 -0.55712372)
(3.3974049 0.7400316 -0.55660748)
(3.3978109 0.74004728 -0.55609101)
(3.3988039 0.74007982 -0.55482203)
(3.398308 0.74006331 -0.55545682)
(3.3993001 0.74009669 -0.55418658)
(3.3997951 0.74011421 -0.55355078)
(3.4002891 0.74013197 -0.55291438)
(3.4007831 0.74015039 -0.55227739)
(3.4012749 0.74016923 -0.55163991)
(3.401767 0.74018848 -0.55100179)
(3.403111 0.74019933 -0.54925263)
(3.4024401 0.74019343 -0.55012769)
(3.404459 0.74019659 -0.54748458)
(3.4037859 0.74019748 -0.54836911)
(3.4051321 0.74019653 -0.54659897)
(3.405803 0.7401973 -0.54571229)
(3.407001 0.74020559 -0.54412168)
(3.4064021 0.74020118 -0.54491752)
(3.407598 0.74021077 -0.54332513)
(3.4081941 0.74021667 -0.54252762)
(3.4093039 0.74019939 -0.54103577)
(3.4087501 0.74020767 -0.54178208)
(3.409858 0.7401917 -0.54028893)
(3.4104109 0.74018461 -0.53954113)
(3.4116781 0.7401585 -0.53781742)
(3.4110451 0.74017107 -0.53867978)
(3.4123099 0.74014658 -0.53695399)
(3.412941 0.74013561 -0.5360896)
(3.4136651 0.74010551 -0.53509402)
(3.4133029 0.74012041 -0.53559202)
(3.414026 0.74009091 -0.53459573)
(3.414386 0.7400766 -0.53409702)
(3.415169 0.74004912 -0.53301108)
(3.414778 0.74006271 -0.5335542)
(3.41556 0.74003571 -0.53246742)
(3.4159501 0.74002278 -0.53192347)
(3.4163401 0.74001008 -0.53137898)
(3.416729 0.7399978 -0.53083432)
(3.4171171 0.73998582 -0.53028911)
(3.417505 0.73997402 -0.52974349)
(3.4186521 0.73991102 -0.52812308)
(3.4180789 0.73994219 -0.5289337)
(3.419795 0.73985082 -0.52649897)
(3.419224 0.7398805 -0.5273115)
(3.420439 0.73981702 -0.52557808)
(3.4201169 0.73983377 -0.52603883)
(3.4207611 0.73980051 -0.52511728)
(3.421082 0.73978418 -0.52465618)
(3.421402 0.73976809 -0.52419472)
(3.4217229 0.73975229 -0.52373302)
(3.4220431 0.73973668 -0.52327102)
(3.422363 0.73972118 -0.52280861)
(3.4239731 0.73961228 -0.52046603)
(3.4234371 0.73964798 -0.52124768)
(3.4245069 0.73957729 -0.51968348)
(3.4229 0.73968428 -0.52202863)
(3.4253111 0.73952132 -0.51850158)
(3.4249091 0.73954922 -0.5190928)
(3.4257121 0.73949391 -0.51791)
(3.4261119 0.73946679 -0.51731777)
(3.426512 0.73944008 -0.51672518)
(3.4269111 0.73941392 -0.51613218)
(3.427309 0.73938793 -0.51553857)
(3.427706 0.7393623 -0.51494467)
(3.42834 0.73931253 -0.51399428)
(3.4280231 0.73933733 -0.51446962)
(3.4286571 0.73928797 -0.51351869)
(3.428972 0.73926371 -0.51304281)
(3.4297359 0.73919851 -0.51188898)
(3.429354 0.73923087 -0.51246607)
(3.4301159 0.7391665 -0.51131147)
(3.430496 0.73913473 -0.51073349)
(3.4308751 0.73910338 -0.51015508)
(3.4312539 0.73907238 -0.5095762)
(3.431632 0.73904169 -0.5089969)
(3.432009 0.73901141 -0.50841713)
(3.433491 0.73889899 -0.50612748)
(3.433121 0.73892659 -0.50670058)
(3.4327509 0.73895448 -0.50727308)
(3.4323809 0.7389828 -0.50784528)
(3.4340751 0.73885018 -0.50521719)
(3.4337831 0.7388745 -0.50567251)
(3.4377451 0.73852092 -0.499423)
(3.437289 0.7385602 -0.50014949)
(3.4368329 0.73860008 -0.50087547)
(3.4363761 0.73864043 -0.50160068)
(3.4359181 0.73868138 -0.50232542)
(3.4354589 0.73872268 -0.50304931)
(3.434999 0.7387647 -0.50377262)
(3.4345369 0.73880708 -0.5044952)
(3.4386539 0.73843962 -0.4979642)
(3.4382 0.73847997 -0.49869391)
(3.441684 0.73814708 -0.4930388)
(3.4413071 0.73818243 -0.4936561)
(3.4409311 0.73821813 -0.49427289)
(3.4405529 0.73825407 -0.49488929)
(3.4401751 0.73829043 -0.49550521)
(3.439795 0.73832721 -0.4961206)
(3.4394159 0.73836428 -0.4967356)
(3.4390349 0.73840177 -0.4973501)
(3.4431441 0.73800743 -0.4906272)
(3.44278 0.73804182 -0.4912307)
(3.442415 0.73807663 -0.4918339)
(3.44205 0.73811167 -0.49243659)
(3.445673 0.73774952 -0.48639089)
(3.445359 0.73778093 -0.48692161)
(3.445044 0.7378124 -0.48745191)
(3.4447279 0.73784429 -0.48798189)
(3.444412 0.73787642 -0.48851171)
(3.4440961 0.73790872 -0.489041)
(3.443779 0.73794132 -0.48957011)
(3.4434619 0.73797423 -0.4900988)
(3.448102 0.73750001 -0.48225021)
(3.447799 0.73753041 -0.48276889)
(3.4474969 0.73756093 -0.48328719)
(3.4471941 0.73759168 -0.48380521)
(3.4468911 0.7376228 -0.48432299)
(3.4465871 0.73765409 -0.48484051)
(3.4462831 0.73768562 -0.48535761)
(3.4459779 0.73771739 -0.48587441)
(3.4497001 0.7373296 -0.47948429)
(3.449302 0.73737162 -0.48017651)
(3.4489019 0.737414 -0.48086831)
(3.4485021 0.7374568 -0.48155949)
(3.4538291 0.73687959 -0.47218609)
(3.4533181 0.73693341 -0.4731015)
(3.452806 0.73698771 -0.47401601)
(3.452292 0.73704278 -0.4749296)
(3.451777 0.73709881 -0.4758423)
(3.4512601 0.73715532 -0.4767541)
(3.4507411 0.73721272 -0.4776651)
(3.4502211 0.73727077 -0.47857511)
(3.4581339 0.73639929 -0.46433151)
(3.457871 0.73642749 -0.46481881)
(3.457608 0.73645592 -0.46530601)
(3.4573441 0.73648453 -0.4657928)
(3.4570789 0.73651332 -0.46627951)
(3.456815 0.73654228 -0.46676591)
(3.4565499 0.73657149 -0.46725211)
(3.456284 0.73660088 -0.467738)
(3.4560189 0.7366305 -0.46822369)
(3.4557519 0.73666042 -0.46870911)
(3.4554861 0.7366904 -0.46919441)
(3.455219 0.73672062 -0.4696793)
(3.454951 0.73675102 -0.47016409)
(3.4546831 0.73678172 -0.47064859)
(3.4544151 0.73681247 -0.47113281)
(3.4541459 0.73684353 -0.4716168)
(3.4606371 0.73610872 -0.45964131)
(3.460326 0.73614389 -0.46022871)
(3.4600151 0.73617959 -0.46081591)
(3.459702 0.73621547 -0.46140271)
(3.4593899 0.73625171 -0.4619891)
(3.4590769 0.73628807 -0.4625752)
(3.4587629 0.73632491 -0.46316099)
(3.4584489 0.73636198 -0.4637464)
(3.4620931 0.73594022 -0.45686951)
(3.46173 0.7359817 -0.4575631)
(3.4613659 0.73602372 -0.4582563)
(3.4610021 0.73606592 -0.458949)
(3.46367 0.73574758 -0.45382899)
(3.4632781 0.73579508 -0.45458999)
(3.4628839 0.735843 -0.45535031)
(3.4624889 0.7358914 -0.45611021)
(3.4652481 0.73557037 -0.45075029)
(3.464855 0.73561412 -0.4515208)
(3.4644611 0.73565811 -0.4522908)
(3.464066 0.73570269 -0.45306021)
(3.467778 0.73526418 -0.44572639)
(3.467463 0.73530138 -0.44635561)
(3.467149 0.73533893 -0.4469845)
(3.4668341 0.73537672 -0.447613)
(3.4665179 0.7354148 -0.4482412)
(3.4662011 0.73545331 -0.44886899)
(3.465884 0.73549199 -0.44949639)
(3.4655659 0.73553097 -0.45012349)
(3.4705861 0.73492903 -0.44002181)
(3.470279 0.73496509 -0.44065249)
(3.4699709 0.73500162 -0.44128281)
(3.469662 0.73503822 -0.4419128)
(3.469353 0.73507529 -0.44254249)
(3.469044 0.73511261 -0.4431718)
(3.4687331 0.73515022 -0.44380069)
(3.4684219 0.73518813 -0.4444294)
(3.471132 0.73486418 -0.43889561)
(3.4708591 0.73489648 -0.43945891)
(3.47296 0.73464549 -0.43508789)
(3.472506 0.73469919 -0.43604091)
(3.472049 0.73475349 -0.43699321)
(3.471591 0.7348085 -0.4379448)
(3.474875 0.73441082 -0.43103221)
(3.474637 0.73443949 -0.4315398)
(3.4743991 0.73446828 -0.43204731)
(3.4741609 0.73449743 -0.4325546)
(3.4739211 0.73452657 -0.43306169)
(3.473681 0.73455608 -0.43356851)
(3.4734421 0.73458558 -0.43407521)
(3.473201 0.7346155 -0.43458161)
(3.475142 0.73437911 -0.43046299)
(3.4772589 0.73412663 -0.42588481)
(3.47702 0.73415428 -0.4264051)
(3.4767809 0.73418218 -0.4269253)
(3.476542 0.73421037 -0.4274452)
(3.4763019 0.73423868 -0.42796499)
(3.4760611 0.73426718 -0.4284845)
(3.475821 0.73429602 -0.4290038)
(3.47558 0.73432487 -0.4295229)
(3.478101 0.73402089 -0.4240388)
(3.47768 0.73407352 -0.4249621)
(3.4793429 0.73387527 -0.42128769)
(3.4790339 0.73391128 -0.42197609)
(3.478723 0.73394752 -0.42266399)
(3.4784119 0.73398411 -0.42335159)
(3.4804339 0.73374069 -0.4188455)
(3.4801619 0.73377389 -0.41945651)
(3.4798901 0.7338075 -0.42006719)
(3.4796171 0.7338413 -0.4206776)
(3.481513 0.73361522 -0.41640341)
(3.4812441 0.73364621 -0.4170143)
(3.4809749 0.73367739 -0.41762501)
(3.480705 0.73370898 -0.41823539)
(3.482667 0.73347408 -0.4137637)
(3.4823799 0.73350888 -0.41442409)
(3.4820919 0.73354411 -0.41508409)
(3.4818029 0.73357952 -0.41574389)
(3.4838541 0.73333472 -0.41101721)
(3.4835579 0.73336911 -0.4117043)
(3.4832621 0.73340368 -0.4123911)
(3.482965 0.73343867 -0.4130775)
(3.484694 0.73323327 -0.40905371)
(3.4842751 0.73328358 -0.41003579)
(3.486383 0.73303032 -0.40505359)
(3.4859631 0.73308003 -0.40605459)
(3.4855411 0.7331304 -0.40705499)
(3.4851191 0.73318148 -0.40805471)
(3.486428 0.7330249 -0.40494579)
(3.4881411 0.73282969 -0.4008131)
(3.487726 0.73287612 -0.40182021)
(3.4873099 0.73292321 -0.4028267)
(3.486892 0.73297077 -0.40383241)
(3.488934 0.73273349 -0.39887631)
(3.488538 0.73278129 -0.39984509)
(3.4901631 0.7325955 -0.39583769)
(3.489857 0.73262942 -0.39659789)
(3.4895501 0.73266381 -0.3973577)
(3.4892421 0.73269838 -0.39811721)
(3.490962 0.73250169 -0.39384279)
(3.4905629 0.73254818 -0.39484051)
(3.492707 0.73229861 -0.38941789)
(3.492491 0.73232329 -0.3899717)
(3.492274 0.73234832 -0.39052531)
(3.4920559 0.7323733 -0.39107871)
(3.491838 0.73239863 -0.39163181)
(3.4916201 0.73242408 -0.39218491)
(3.491401 0.73244983 -0.39273769)
(3.4911809 0.7324757 -0.39329031)
(3.4927731 0.7322911 -0.38924941)
(3.4945171 0.73210353 -0.3847374)
(3.4943099 0.73212522 -0.38527799)
(3.494102 0.73214698 -0.38581821)
(3.4938941 0.73216897 -0.38635841)
(3.493686 0.73219132 -0.3868984)
(3.4934771 0.73221368 -0.38743809)
(3.493268 0.73223621 -0.38797781)
(3.493058 0.73225898 -0.3885172)
(3.495615 0.73197442 -0.38185039)
(3.4953411 0.73200619 -0.38257259)
(3.4950669 0.73203832 -0.38329461)
(3.494792 0.7320708 -0.3840161)
(3.4963269 0.73190331 -0.37995541)
(3.495971 0.7319386 -0.38090321)
(3.497787 0.73173952 -0.37602001)
(3.4974239 0.73177958 -0.37700471)
(3.4970601 0.73182023 -0.37798879)
(3.4966941 0.73186147 -0.37897241)
(3.4982841 0.73169029 -0.3746658)
(3.4980359 0.73171479 -0.37534299)
(3.4996891 0.73154068 -0.37078801)
(3.4993401 0.73157728 -0.37175819)
(3.4989891 0.73161441 -0.3727279)
(3.498637 0.73165208 -0.3736971)
(3.500623 0.73144448 -0.36817011)
(3.500391 0.73146832 -0.36882499)
(3.5001571 0.73149222 -0.36947951)
(3.499923 0.7315163 -0.37013391)
(3.5015221 0.73135477 -0.36562341)
(3.501298 0.73137689 -0.36626029)
(3.5010741 0.73139918 -0.3668972)
(3.500849 0.73142183 -0.3675338)
(3.502301 0.73126662 -0.36339051)
(3.5021069 0.73128837 -0.363949)
(3.5019121 0.73131031 -0.36450729)
(3.5017171 0.73133248 -0.3650654)
(3.503267 0.7311762 -0.3605881)
(3.503026 0.73119831 -0.36128911)
(3.502785 0.73122078 -0.3619898)
(3.502543 0.73124361 -0.3626903)
(3.504231 0.73107457 -0.35775471)
(3.5039909 0.73109949 -0.3584635)
(3.5037501 0.73112482 -0.3591719)
(3.503509 0.73115039 -0.35988009)
(3.5048261 0.73102093 -0.35598639)
(3.504529 0.73104751 -0.35687071)
(3.5058789 0.73091447 -0.3528223)
(3.5056169 0.73094058 -0.35361379)
(3.5053539 0.73096699 -0.35440499)
(3.50509 0.73099381 -0.35519579)
(3.506351 0.73087418 -0.3513853)
(3.506115 0.73089421 -0.35210401)
(3.5074949 0.73076338 -0.3478685)
(3.507211 0.7307905 -0.3487483)
(3.5069251 0.73081797 -0.3496277)
(3.506639 0.73084593 -0.35050669)
(3.5079491 0.73072582 -0.3464534)
(3.5077231 0.73074448 -0.34716111)
(3.509099 0.73061973 -0.3428334)
(3.5088129 0.73064548 -0.34373891)
(3.5085261 0.73067182 -0.3446441)
(3.508239 0.73069859 -0.3455489)