/*--------------------------------*- C++ -*----------------------------------*\
| =========                 |                                                 |
| \\      /  F ield         | OpenFOAM: The Open Source CFD Toolbox           |
|  \\    /   O peration     | Version:  v1812                                 |
|   \\  /    A nd           | Web:      www.OpenFOAM.com                      |
|    \\/     M anipulation  |                                                 |
\*---------------------------------------------------------------------------*/
FoamFile
{
    version     2.0;
    format      ascii;
    class       extendedFeatureEdgeMesh;
    location    "constant/extendedFeatureEdgeMesh";
    object      Mirrors.extendedFeatureEdgeMesh;
}
// * * * * * * * * * * * * * * * * * * * * * * * * * * * * * * * * * * * * * //

// points

881
(
(0.75322902 0.61055398 0.76847529)
(0.74573231 0.60868913 -0.77457958)
(0.74497259 0.60949701 -0.77412248)
(0.97636861 0.77871782 0.71813428)
(0.74918979 0.60831559 0.77440482)
(0.97636861 0.77871782 -0.71813422)
(0.92535228 0.61635011 -0.77962333)
(0.75302762 0.60655099 -0.77425539)
(0.92535228 0.61635011 0.77962321)
(0.74503779 0.61057889 -0.77360779)
(0.74507362 0.60928482 0.77423447)
(0.74496341 0.61037982 0.77369618)
(0.74918979 0.60831559 -0.77440482)
(0.92817259 0.62176138 -0.77237058)
(0.92768991 0.6202814 -0.77278417)
(0.92865521 0.62324083 -0.77195537)
(0.92921537 0.62495828 -0.77147108)
(0.9298656 0.62695187 -0.77090591)
(0.93062031 0.62926602 -0.77024561)
(0.93152457 0.63203841 -0.7694487)
(0.93243432 0.6348272 -0.76864058)
(0.93334419 0.63761532 -0.7678262)
(0.93425369 0.64040178 -0.7670058)
(0.93516308 0.64318663 -0.76617938)
(0.93607187 0.64596868 -0.7653473)
(0.93698061 0.64874911 -0.76450908)
(0.93788821 0.65152478 -0.76366591)
(0.93879569 0.6542989 -0.76281673)
(0.93970221 0.65706891 -0.76196229)
(0.94060868 0.65983731 -0.76110178)
(0.94151449 0.66260201 -0.76023602)
(0.9424203 0.6653651 -0.75936419)
(0.94332552 0.66812521 -0.75848681)
(0.9442305 0.67088342 -0.75760359)
(0.9451353 0.67363918 -0.75671458)
(0.9460398 0.67639309 -0.75581968)
(0.94694418 0.6791451 -0.75491881)
(0.94784832 0.68189508 -0.75401223)
(0.9487524 0.68464381 -0.75309938)
(0.94965631 0.68739051 -0.75218081)
(0.95056027 0.69013619 -0.75125593)
(0.951464 0.69288009 -0.75032508)
(0.9523679 0.6956234 -0.74938798)
(0.95326978 0.69835949 -0.7484467)
(0.954171 0.7010923 -0.74750012)
(0.95507228 0.7038244 -0.7465471)
(0.95597333 0.70655459 -0.74558818)
(0.95687318 0.70928073 -0.7446242)
(0.95777291 0.7120049 -0.74365437)
(0.95867169 0.71472538 -0.7426793)
(0.95957023 0.71744388 -0.74169832)
(0.96046788 0.72015911 -0.74071193)
(0.96136522 0.72287232 -0.73971969)
(0.96226192 0.72558248 -0.73872209)
(0.96315831 0.72829068 -0.73771858)
(0.96405411 0.73099619 -0.73670948)
(0.96494961 0.73369962 -0.73569459)
(0.96584469 0.73640078 -0.73467392)
(0.96673942 0.73909968 -0.73364753)
(0.9676339 0.74179667 -0.73261529)
(0.96852797 0.74449152 -0.73157728)
(0.96942192 0.74718457 -0.7305333)
(0.97031552 0.74987549 -0.72948349)
(0.97120911 0.75256503 -0.72842771)
(0.97210228 0.7552523 -0.72736609)
(0.97299552 0.7579385 -0.72629821)
(0.9738878 0.76062059 -0.72522539)
(0.97477978 0.76330048 -0.72414678)
(0.9756698 0.76597321 -0.72306448)
(0.97655529 0.76863098 -0.72198159)
(0.977314 0.7709074 -0.72104877)
(0.97804803 0.77310878 -0.72014219)
(0.97830808 0.77517891 -0.71926832)
(0.97771782 0.7771762 -0.71838951)
(0.75135487 0.61623728 0.77030092)
(0.74975181 0.61493719 0.77118909)
(0.75301337 0.61763018 0.76971078)
(0.92768991 0.6202814 0.77278417)
(0.92810363 0.62154979 0.77242988)
(0.92851722 0.62281787 0.7720744)
(0.92899829 0.62429279 0.7716592)
(0.9295513 0.62598842 0.77117962)
(0.93019331 0.62795669 0.77061981)
(0.93093842 0.63024151 0.76996601)
(0.93182749 0.63296711 0.76918042)
(0.9327386 0.63575971 0.76836902)
(0.93366307 0.6385926 0.76753932)
(0.93458432 0.64141428 0.76670623)
(0.93551922 0.6442768 0.76585418)
(0.93644631 0.6471144 0.76500291)
(0.9373759 0.64995819 0.76414281)
(0.93829268 0.65276158 0.76328832)
(0.93921459 0.65557909 0.7624228)
(0.94012362 0.65835601 0.76156318)
(0.94103909 0.66115099 0.7606914)
(0.94195127 0.66393471 0.75981653)
(0.94285959 0.66670507 0.75893921)
(0.94377798 0.6695044 0.75804609)
(0.94469172 0.6722883 0.75715119)
(0.94561827 0.67510998 0.75623751)
(0.94654429 0.67792851 0.75531793)
(0.947474 0.68075669 0.75438827)
(0.94839138 0.6835463 0.75346458)
(0.94931281 0.68634659 0.75253069)
(0.95022172 0.68910778 0.75160313)
(0.95113653 0.69188583 0.7506631)
(0.95204061 0.69463003 0.74972808)
(0.95294929 0.69738728 0.74878192)
(0.95385832 0.70014417 0.74782932)
(0.95476031 0.70287871 0.74687779)
(0.95567411 0.70564818 0.74590743)
(0.95658338 0.70840299 0.74493551)
(0.95750523 0.71119428 0.74394381)
(0.9584263 0.7139827 0.74294633)
(0.95935011 0.7167781 0.74193943)
(0.96026248 0.71953797 0.74093843)
(0.96117842 0.72230762 0.73992711)
(0.96208239 0.72504008 0.73892248)
(0.96299189 0.72778833 0.7379055)
(0.9638896 0.73049963 0.7368955)
(0.96479362 0.73322892 0.73587209)
(0.96569431 0.73594707 0.73484612)
(0.96659237 0.73865628 0.73381692)
(0.96749741 0.74138522 0.73277348)
(0.96839648 0.74409533 0.73173052)
(0.96930701 0.74683851 0.73066813)
(0.97021449 0.74957138 0.72960269)
(0.97113347 0.75233769 0.72851741)
(0.9720456 0.75508207 0.72743368)
(0.9729597 0.75783098 0.72634119)
(0.97386283 0.76054537 0.72525573)
(0.97477001 0.76327097 0.72415882)
(0.97566581 0.76596129 0.72306943)
(0.97655278 0.76862383 0.72198492)
(0.9773128 0.77090389 0.7210505)
(0.97804803 0.77310878 0.72014219)
(0.9783079 0.77517909 0.7192688)
(0.97771788 0.77717608 0.71838951)
(0.74694473 0.61256242 -0.77279061)
(0.74725658 0.61283588 -0.77264237)
(0.7472564 0.612836 0.77264237)
(0.74688929 0.6084035 -0.77480549)
(0.97461408 0.7796455 0.71876508)
(0.97292769 0.78001243 0.71982467)
(0.7776832 0.63837802 -0.76480132)
(0.77960873 0.6399532 -0.76441002)
(0.78153729 0.64152378 -0.76401681)
(0.78353781 0.64314812 -0.7636084)
(0.78547311 0.64471442 -0.7632125)
(0.7874155 0.6462813 -0.76281422)
(0.78937489 0.64785713 -0.76241142)
(0.79136127 0.64944959 -0.76200211)
(0.79329222 0.65099287 -0.76160312)
(0.79522812 0.6525358 -0.76120192)
(0.7972191 0.65411788 -0.76078808)
(0.79919487 0.6556834 -0.76037621)
(0.80115592 0.65723288 -0.75996608)
(0.80310541 0.65876907 -0.75955713)
(0.80513072 0.66036057 -0.7591309)
(0.80708981 0.66189599 -0.7587173)
(0.80905509 0.66343242 -0.75830108)
(0.81103468 0.66497582 -0.75788039)
(0.81304318 0.66653782 -0.75745219)
(0.81499201 0.66804969 -0.75703537)
(0.81694913 0.66956431 -0.75661552)
(0.81895751 0.6711148 -0.75618321)
(0.82095402 0.6726523 -0.75575203)
(0.82293171 0.67417192 -0.75532341)
(0.82489753 0.67567879 -0.75489622)
(0.82694221 0.67724282 -0.75445032)
(0.82891959 0.67875171 -0.75401771)
(0.83090299 0.68026179 -0.7535823)
(0.83289778 0.6817773 -0.75314301)
(0.83492422 0.68331319 -0.75269532)
(0.83688712 0.68479812 -0.75226033)
(0.746889 0.6084035 0.77480549)
(0.7500186 0.60771608 0.77434123)
(0.75090909 0.60721242 0.77429301)
(0.75181818 0.6068396 0.7742641)
(0.74694461 0.61256242 0.77279061)
(0.74624389 0.61194289 0.77306628)
(0.97292781 0.78001231 -0.71982479)
(0.9746142 0.7796455 -0.71876508)
(0.92589688 0.616602 0.77710319)
(0.92616159 0.61683249 0.77603137)
(0.92649752 0.61733788 0.77496707)
(0.92683607 0.6180101 0.7741195)
(0.92717481 0.61884677 0.7734338)
(0.92683589 0.61801422 -0.77411532)
(0.92647833 0.61729199 -0.77504051)
(0.92616868 0.6168372 -0.77602959)
(0.92717201 0.61884749 -0.77343321)
(0.92589688 0.616602 -0.77710319)
(0.92765319 0.62017041 -0.77281648)
(0.75565392 0.60656589 -0.77432859)
(0.75444257 0.60649312 -0.77428538)
(0.75696611 0.60664469 -0.77437532)
(0.75818467 0.60671782 -0.77441871)
(0.75941831 0.60679179 -0.7744624)
(0.76071501 0.60686952 -0.7745083)
(0.7619583 0.60694402 -0.77455223)
(0.76320899 0.60701889 -0.77459627)
(0.76449388 0.60709578 -0.77464151)
(0.76575607 0.6071713 -0.77468592)
(0.76701999 0.60724688 -0.77473009)
(0.76829457 0.60732299 -0.77477467)
(0.76955348 0.60739821 -0.7748186)
(0.77083039 0.60747439 -0.77486312)
(0.77209228 0.60754961 -0.77490687)
(0.77333808 0.60762388 -0.77495009)
(0.77479142 0.60771048 -0.77500039)
(0.7762183 0.60779542 -0.77504969)
(0.77743357 0.60786772 -0.77509153)
(0.77868938 0.6079424 -0.77513468)
(0.77997088 0.60801852 -0.77517867)
(0.7812376 0.60809368 -0.77522212)
(0.78250551 0.60816902 -0.7752654)
(0.78377628 0.6082443 -0.77530873)
(0.78503132 0.60831869 -0.77535141)
(0.786313 0.60839468 -0.77539492)
(0.78757042 0.60846913 -0.77543759)
(0.78881162 0.60854262 -0.7754795)
(0.79004091 0.60861528 -0.77552098)
(0.7912702 0.60868788 -0.77556241)
(0.79251009 0.60876107 -0.77560413)
(0.79385322 0.60884041 -0.77564919)
(0.79510063 0.60891402 -0.77569097)
(0.79636341 0.60898852 -0.77573317)
(0.79769069 0.60906672 -0.7757774)
(0.79896343 0.60914159 -0.77581978)
(0.80024362 0.60921699 -0.77586228)
(0.80155879 0.6092943 -0.77590591)
(0.8028509 0.60937029 -0.77594858)
(0.8041445 0.60944629 -0.77599132)
(0.80544919 0.60952288 -0.7760343)
(0.80673778 0.60959852 -0.77607667)
(0.80804503 0.60967511 -0.77611947)
(0.8093366 0.60975081 -0.77616179)
(0.81061178 0.60982549 -0.77620351)
(0.81193459 0.60990292 -0.77624661)
(0.81321108 0.60997748 -0.77628809)
(0.81447071 0.61005121 -0.77632898)
(0.81581169 0.61012948 -0.77637249)
(0.81707048 0.61020303 -0.7764132)
(0.81831211 0.61027539 -0.7764532)
(0.81965691 0.61035383 -0.77649659)
(0.82090187 0.61042643 -0.77653658)
(0.82216311 0.6104998 -0.776577)
(0.82349169 0.61057711 -0.77661949)
(0.82476258 0.61065108 -0.77666008)
(0.8260417 0.6107254 -0.77670091)
(0.82735783 0.61080188 -0.77674282)
(0.82864863 0.6108768 -0.7767837)
(0.82994139 0.61095178 -0.77682471)
(0.83124721 0.61102748 -0.77686602)
(0.83253688 0.61110228 -0.77690661)
(0.83384299 0.61117792 -0.77694768)
(0.83513582 0.61125273 -0.77698839)
(0.83641231 0.61132658 -0.77702838)
(0.83773392 0.61140293 -0.77706969)
(0.83901179 0.61147678 -0.77710962)
(0.8402729 0.61154962 -0.7771489)
(0.8416124 0.61162692 -0.77719051)
(0.8428728 0.61169958 -0.77722961)
(0.84411609 0.61177123 -0.77726811)
(0.84546691 0.61184901 -0.77730978)
(0.84670848 0.61192048 -0.7773481)
(0.8479678 0.6119929 -0.77738678)
(0.84929508 0.61206931 -0.77742761)
(0.85056353 0.61214209 -0.77746642)
(0.8518402 0.6122154 -0.7775054)
(0.85315669 0.61229098 -0.77754557)
(0.8544479 0.61236501 -0.77758491)
(0.85574132 0.61243922 -0.77762407)
(0.85705048 0.61251408 -0.77766383)
(0.85834002 0.61258793 -0.77770281)
(0.85964429 0.61266249 -0.77774221)
(0.86093837 0.61273652 -0.77778119)
(0.86221617 0.61280942 -0.77781957)
(0.86353618 0.61288482 -0.77785921)
(0.86481571 0.61295772 -0.77789748)
(0.86607838 0.61302972 -0.77793521)
(0.8674165 0.61310589 -0.77797508)
(0.86867899 0.61317772 -0.77801269)
(0.86992419 0.61324859 -0.77804971)
(0.87127328 0.61332518 -0.7780897)
(0.87251401 0.61339569 -0.7781263)
(0.87377161 0.6134671 -0.77816349)
(0.87510401 0.61354268 -0.77820271)
(0.87642848 0.61361778 -0.77824157)
(0.87777549 0.61369407 -0.77828109)
(0.87911248 0.61376983 -0.77832019)
(0.88037139 0.61384112 -0.77835691)
(0.8816424 0.613913 -0.77839392)
(0.88296479 0.6139878 -0.77843231)
(0.88424629 0.61406028 -0.77846938)
(0.88553268 0.614133 -0.77850652)
(0.88684368 0.61420709 -0.77854431)
(0.88813972 0.61428028 -0.7785815)
(0.88943839 0.61435372 -0.77861869)
(0.89073789 0.61442709 -0.77865583)
(0.8920213 0.61449963 -0.77869231)
(0.89333493 0.61457378 -0.77872962)
(0.89462107 0.61464649 -0.77876592)
(0.89589059 0.61471832 -0.77880168)
(0.89722151 0.6147936 -0.77883911)
(0.89849222 0.6148653 -0.7788747)
(0.8997454 0.61493599 -0.77890968)
(0.90109211 0.61501187 -0.77894741)
(0.90234369 0.6150822 -0.7789824)
(0.90359068 0.615152 -0.77901733)
(0.90492731 0.61522651 -0.77905482)
(0.90618271 0.6152963 -0.77909011)
(0.90745091 0.61536658 -0.77912569)
(0.9087764 0.61543977 -0.779163)
(0.91005599 0.6155104 -0.779199)
(0.91133958 0.6155811 -0.77923512)
(0.91265261 0.6156534 -0.7792719)
(0.9139505 0.6157248 -0.77930808)
(0.91524929 0.61579621 -0.77934438)
(0.91655171 0.61586779 -0.77938062)
(0.9178381 0.61593843 -0.77941632)
(0.91914892 0.61601031 -0.77945262)
(0.92043799 0.616081 -0.77948833)
(0.92172712 0.61615169 -0.77952379)
(0.92287189 0.61621439 -0.77955532)
(0.92411208 0.61628222 -0.77958941)
(0.92571539 0.61651802 -0.77794319)
(0.92553377 0.6164341 -0.7787832)
(0.75187159 0.60682189 -0.77426302)
(0.74975199 0.61493713 -0.77118897)
(0.74624389 0.61194271 -0.7730664)
(0.75444257 0.60649312 0.77428538)
(0.75568521 0.6065678 0.77432972)
(0.75703138 0.60664862 0.7743777)
(0.75828159 0.60672361 0.77442211)
(0.75954711 0.60679948 0.77446699)
(0.76087737 0.60687929 0.77451408)
(0.76215303 0.60695571 0.77455908)
(0.76343608 0.60703248 0.77460432)
(0.76485223 0.6071173 0.77465409)
(0.76609892 0.6071918 0.7746979)
(0.76738709 0.60726881 0.77474302)
(0.76870167 0.60734731 0.77478892)
(0.77000129 0.60742491 0.77483422)
(0.77130198 0.60750252 0.77487952)
(0.77260572 0.60758018 0.77492481)
(0.77389318 0.60765702 0.7749694)
(0.775289 0.6077401 0.77501762)
(0.77659661 0.60781789 0.77506268)
(0.77788639 0.6078946 0.77510709)
(0.77919853 0.60797262 0.77515221)
(0.78049117 0.60804939 0.77519649)
(0.78176743 0.60812521 0.77524018)
(0.78317869 0.60820889 0.77528828)
(0.78447741 0.6082859 0.77533263)
(0.7857551 0.6083616 0.77537602)
(0.78708142 0.60844022 0.77542102)
(0.78836042 0.60851592 0.7754643)
(0.78962249 0.60859048 0.77550691)
(0.79096699 0.60867 0.77555221)
(0.79222828 0.6087445 0.77559471)
(0.79347217 0.60881788 0.77563637)
(0.79481971 0.60889751 0.77568161)
(0.79606831 0.60897112 0.77572328)
(0.79733282 0.60904562 0.77576548)
(0.79866409 0.609124 0.77580982)
(0.79998648 0.60920191 0.77585381)
(0.8013432 0.60928172 0.77589881)
(0.80267918 0.60936022 0.77594298)
(0.8039462 0.6094346 0.77598482)
(0.80522341 0.60950959 0.7760269)
(0.80654597 0.60958719 0.77607042)
(0.80783439 0.60966277 0.77611262)
(0.8091265 0.60973853 0.77615499)
(0.81043881 0.6098153 0.77619779)
(0.81173509 0.60989118 0.77624011)
(0.81304002 0.60996753 0.77628261)
(0.81434 0.61004353 0.77632481)
(0.81562358 0.61011851 0.77636641)
(0.81694329 0.61019558 0.77640909)
(0.81822902 0.61027062 0.77645057)
(0.81949788 0.61034459 0.7764914)
(0.82083482 0.61042249 0.77653438)
(0.82210368 0.6104964 0.77657509)
(0.82335562 0.61056918 0.7766152)
(0.82471073 0.6106481 0.77665848)
(0.82595998 0.61072069 0.77669829)
(0.82721418 0.61079347 0.77673823)
(0.8285529 0.61087132 0.77678072)
(0.8298158 0.61094451 0.77682072)
(0.83109027 0.61101842 0.77686101)
(0.83241493 0.61109519 0.77690279)
(0.8337003 0.61116958 0.77694333)
(0.83499032 0.61124432 0.7769838)
(0.83630419 0.61132032 0.77702498)
(0.83760262 0.61139542 0.77706558)
(0.83890522 0.61147058 0.77710629)
(0.8402077 0.6115458 0.77714682)
(0.84149379 0.61162001 0.77718681)
(0.84281081 0.611696 0.7772277)
(0.84409928 0.61177021 0.77726758)
(0.84537143 0.61184353 0.77730691)
(0.84670532 0.6119203 0.77734798)
(0.84797752 0.61199349 0.77738708)
(0.84923261 0.61206567 0.77742559)
(0.85058552 0.6121434 0.77746707)
(0.85183871 0.6122154 0.7775054)
(0.85308868 0.6122871 0.77754349)
(0.85443038 0.61236399 0.77758431)
(0.85568899 0.61243618 0.77762258)
(0.85696077 0.61250901 0.77766109)
(0.85828769 0.61258489 0.7777012)
(0.85956973 0.61265832 0.77774)
(0.86085749 0.61273181 0.77777869)
(0.86217308 0.61280698 0.77781832)
(0.86347312 0.61288118 0.7778573)
(0.86477327 0.61295527 0.77789623)
(0.86607832 0.61302972 0.77793521)
(0.86736709 0.61310309 0.77797371)
(0.86868131 0.6131779 0.77801281)
(0.86997271 0.61325133 0.77805108)
(0.87124759 0.61332381 0.77808893)
(0.87257802 0.61339933 0.77812821)
(0.87385368 0.61347169 0.77816588)
(0.87511241 0.61354309 0.77820289)
(0.87646168 0.61361963 0.77824259)
(0.87771899 0.61369091 0.77827942)
(0.87896538 0.61376148 0.7783159)
(0.88030988 0.6138376 0.77835512)
(0.88156408 0.61390859 0.7783916)
(0.88283271 0.61398029 0.77842849)
(0.88416177 0.61405551 0.77846688)
(0.88544059 0.61412781 0.77850389)
(0.88672608 0.61420041 0.77854091)
(0.88804352 0.61427492 0.77857882)
(0.889341 0.61434817 0.77861589)
(0.89063948 0.61442149 0.77865303)
(0.89194608 0.6144954 0.77869022)
(0.89323688 0.61456829 0.77872682)
(0.89454871 0.61464238 0.77876389)
(0.89584261 0.61471558 0.77880031)
(0.8971197 0.61478782 0.77883619)
(0.89844787 0.6148628 0.77887338)
(0.89972579 0.61493492 0.77890921)
(0.90098691 0.61500603 0.77894449)
(0.90233362 0.61508161 0.7789821)
(0.90359372 0.61515212 0.77901739)
(0.90483838 0.61522162 0.77905232)
(0.9061839 0.61529642 0.77909011)
(0.90743518 0.61536568 0.77912527)
(0.90870172 0.61543572 0.77916092)
(0.91003299 0.61550909 0.77919841)
(0.91130912 0.61557943 0.77923417)
(0.91259313 0.61565012 0.77927017)
(0.91391182 0.61572272 0.77930713)
(0.9152081 0.61579388 0.77934319)
(0.9165051 0.61586517 0.77937931)
(0.9178133 0.61593699 0.77941573)
(0.91910529 0.61600792 0.77945137)
(0.92041618 0.61607981 0.77948773)
(0.92172712 0.61615169 0.77952379)
(0.92296731 0.61621958 0.77955788)
(0.92420763 0.61628753 0.77959198)
(0.92553377 0.6164341 0.7787832)
(0.92571539 0.61651802 0.77794319)
(0.77959448 0.63994068 0.7644127)
(0.7776832 0.63837808 0.7648012)
(0.78157198 0.64155191 0.76400977)
(0.78352201 0.64313531 0.76361167)
(0.78546453 0.64470738 0.76321429)
(0.78740537 0.6462732 0.76281631)
(0.78941619 0.64789009 0.76240301)
(0.79135197 0.64944208 0.76200408)
(0.79330337 0.65100181 0.76160079)
(0.79527688 0.65257448 0.7611919)
(0.79726613 0.65415508 0.76077843)
(0.79920739 0.65569329 0.76037359)
(0.80114418 0.6572237 0.7599687)
(0.80314368 0.65879917 0.75954932)
(0.80511791 0.6603505 0.75913382)
(0.80708152 0.66188949 0.75871921)
(0.80904239 0.66342229 0.75830388)
(0.81107301 0.66500562 0.7578724)
(0.81303132 0.66652852 0.75745487)
(0.81500453 0.66805929 0.75703281)
(0.8169961 0.66960061 0.75660551)
(0.8190068 0.67115271 0.7561726)
(0.82096529 0.67266113 0.75574958)
(0.82292199 0.67416459 0.75532568)
(0.82493919 0.6757108 0.75488722)
(0.82693231 0.67723519 0.75445259)
(0.8289116 0.67874563 0.7540195)
(0.8308875 0.68024999 0.75358582)
(0.83293343 0.68180418 0.7531352)
(0.83490962 0.68330222 0.7526986)
(0.83688718 0.68479812 0.75226039)
(0.83864188 0.68612278 0.75187057)
(0.84045601 0.68748981 0.75146657)
(0.84224361 0.68883431 0.75106758)
(0.84402341 0.69017053 0.75066942)
(0.8458007 0.69150239 0.75027078)
(0.84764069 0.6928789 0.74985731)
(0.84941101 0.69420087 0.74945849)
(0.85117859 0.69551861 0.7490595)
(0.85294712 0.69683468 0.74865949)
(0.85491288 0.69829762 0.74822682)
(0.85694063 0.69980371 0.74777931)
(0.85893852 0.70128489 0.74733728)
(0.86092782 0.702757 0.74689621)
(0.86291409 0.70422429 0.74645472)
(0.86497062 0.70574057 0.74599648)
(0.86694932 0.70719677 0.74555451)
(0.8689425 0.7086612 0.74510819)
(0.87095749 0.71013898 0.74465603)
(0.87298709 0.7116248 0.7441994)
(0.87496728 0.71307188 0.7437529)
(0.8769418 0.71451241 0.74330652)
(0.87897998 0.7159968 0.7428447)
(0.8809908 0.71745878 0.74238801)
(0.8829903 0.7189101 0.74193281)
(0.8849864 0.7203564 0.74147731)
(0.88705248 0.72185099 0.74100471)
(0.88904399 0.72328907 0.74054807)
(0.89104998 0.72473532 0.74008709)
(0.89307439 0.7261923 0.73962069)
(0.89511698 0.72766012 0.73914909)
(0.89710659 0.72908729 0.73868871)
(0.89909321 0.73051 0.7382279)
(0.90114069 0.73197389 0.7377519)
(0.90316337 0.73341781 0.73728061)
(0.90517211 0.73484927 0.73681158)
(0.90717679 0.73627549 0.73634237)
(0.90925169 0.73774928 0.7358557)
(0.91125512 0.7391699 0.7353847)
(0.91327327 0.74059862 0.7349093)
(0.91530639 0.74203551 0.7344293)
(0.91736162 0.74348563 0.73394299)
(0.91935998 0.74489319 0.73346919)
(0.92135829 0.74629837 0.73299438)
(0.92341483 0.74774212 0.73250473)
(0.92544907 0.7491678 0.73201942)
(0.92746693 0.75057942 0.73153698)
(0.92948031 0.75198561 0.73105472)
(0.93156391 0.75343817 0.7305547)
(0.93357962 0.75484091 0.73006999)
(0.93561012 0.75625151 0.729581)
(0.93765241 0.75766748 0.72908819)
(0.93972057 0.75909889 0.72858828)
(0.94172859 0.76048589 0.72810221)
(0.94373959 0.76187217 0.72761458)
(0.94580621 0.76329398 0.72711283)
(0.94785351 0.7646997 0.72661507)
(0.94988197 0.76608932 0.72612131)
(0.95190591 0.7674728 0.72562802)
(0.95393121 0.76885402 0.7251339)
(0.95579672 0.77012432 0.72468352)
(0.9577257 0.77143472 0.72421628)
(0.9596265 0.77272248 0.72375429)
(0.96151942 0.77400148 0.72329253)
(0.96340978 0.77527511 0.72282952)
(0.96536732 0.77658981 0.72234792)
(0.96725118 0.77785081 0.72188228)
(0.96913689 0.7791087 0.7214157)
(0.97103429 0.77990818 0.72082138)
(0.75486332 0.61921841 0.7693097)
(0.75677532 0.62086272 0.76891267)
(0.75866473 0.62247729 0.76852989)
(0.76054859 0.62408137 0.76815629)
(0.76243228 0.62567908 0.76778817)
(0.76438451 0.62732822 0.76741022)
(0.76626551 0.62891078 0.76704741)
(0.76816249 0.6305002 0.76668131)
(0.77008218 0.63210177 0.7663092)
(0.7720179 0.63370991 0.76593113)
(0.7739079 0.63527352 0.76555848)
(0.77579433 0.63682789 0.76518238)
(0.7513538 0.61623943 -0.77030188)
(0.75301367 0.61762983 -0.7697106)
(0.75437528 0.60648942 -0.77428299)
(0.74574238 0.61149698 -0.7732327)
(0.7524423 0.60666198 0.77425551)
(0.75308031 0.6065436 0.77425581)
(0.7537266 0.6064862 0.77426499)
(0.75437528 0.60648942 0.77428299)
(0.83864743 0.68612689 -0.75186932)
(0.84040862 0.68745393 -0.75147718)
(0.84217519 0.68878269 -0.7510829)
(0.84401321 0.69016272 -0.75067168)
(0.84579062 0.69149482 -0.75027311)
(0.84757251 0.69282788 -0.74987262)
(0.84936422 0.69416589 -0.7494691)
(0.85118449 0.69552302 -0.74905819)
(0.85294712 0.69683468 -0.74865949)
(0.85479999 0.69821358 -0.74825168)
(0.85664922 0.6995874 -0.74784368)
(0.85850298 0.70096231 -0.74743378)
(0.86036688 0.70234221 -0.74702072)
(0.8622607 0.70374191 -0.74660009)
(0.86409312 0.7050736 -0.7461192)
(0.86609668 0.70652932 -0.74565411)
(0.868101 0.70798367 -0.74518818)
(0.87004042 0.70941353 -0.74474561)
(0.8719824 0.7108413 -0.74430132)
(0.8739813 0.71230882 -0.7438435)
(0.87596148 0.71375853 -0.74338877)
(0.87792927 0.71519601 -0.74293631)
(0.87988502 0.71662158 -0.74248582)
(0.88191259 0.71809661 -0.74201798)
(0.88387388 0.71952027 -0.74156499)
(0.88584107 0.72094572 -0.74111003)
(0.88782418 0.72237968 -0.74065089)
(0.88983363 0.7238301 -0.7401852)
(0.89178532 0.7252363 -0.7397325)
(0.89374179 0.72664362 -0.73927838)
(0.89575261 0.72808743 -0.73881137)
(0.89774728 0.72951758 -0.73834789)
(0.89972568 0.73093408 -0.7378881)
(0.90169162 0.73233938 -0.73743087)
(0.90373319 0.73379672 -0.736956)
(0.90570748 0.73520368 -0.73649651)
(0.90768731 0.7366122 -0.73603553)
(0.90968019 0.73802769 -0.73557109)
(0.91170239 0.73946148 -0.73509961)
(0.91366339 0.74084938 -0.73464203)
(0.91563213 0.74224049 -0.73418242)
(0.91765201 0.74366528 -0.73371041)
(0.91965938 0.74507898 -0.73324102)
(0.92164719 0.74647641 -0.73277581)
(0.92362243 0.74786288 -0.73231322)
(0.92567748 0.74930298 -0.73183149)
(0.92766452 0.7506932 -0.73136532)
(0.92965639 0.75208479 -0.73089749)
(0.93165892 0.75348163 -0.73042673)
(0.93369341 0.75489861 -0.72994781)
(0.9356631 0.7562682 -0.72948349)
(0.93768013 0.75766861 -0.7290073)
(0.9396981 0.75906742 -0.72853023)
(0.94170338 0.76045489 -0.72805518)
(0.9437896 0.7618959 -0.72755998)
(0.94580698 0.76328641 -0.72708011)
(0.9478296 0.76467758 -0.72659773)
(0.94986331 0.76607323 -0.72611129)
(0.95192963 0.76748812 -0.72561562)
(0.95393121 0.76885402 -0.7251339)
(0.95580709 0.77013141 -0.7246809)
(0.95768428 0.77140659 -0.7242263)
(0.95963758 0.77272999 -0.7237516)
(0.96152657 0.77400643 -0.72329068)
(0.96342081 0.7752825 -0.72282678)
(0.96532571 0.77656198 -0.72235811)
(0.96726167 0.77785778 -0.72187972)
(0.96913689 0.7791087 -0.7214157)
(0.97103423 0.77990818 -0.7208215)
(0.74584663 0.608634 0.774616)
(0.74574238 0.61149698 0.7732327)
(0.74998963 0.60773492 -0.77434307)
(0.75090039 0.6072166 -0.77429342)
(0.75486147 0.61922091 -0.76931161)
(0.75677568 0.62086302 -0.76891261)
(0.75866479 0.62247747 -0.76852977)
(0.76054847 0.62408131 -0.76815629)
(0.76243198 0.6256789 -0.76778829)
(0.76438469 0.6273284 -0.76741022)
(0.76626557 0.62891078 -0.76704741)
(0.76816249 0.6305002 -0.76668131)
(0.77008212 0.63210177 -0.7663092)
(0.7720179 0.63371003 -0.76593119)
(0.7739079 0.63527369 -0.76555848)
(0.77579433 0.63682801 -0.76518238)
(0.7513923 0.60723013 -0.77399319)
(0.84134281 0.6838932 0.7496084)
(0.84351939 0.68560362 0.74913681)
(0.84554261 0.68714249 0.74869293)
(0.8475318 0.68864441 0.7482546)
(0.84952492 0.69014388 0.74781412)
(0.85152161 0.69164699 0.74737209)
(0.8535096 0.69313669 0.7469306)
(0.85549331 0.69462132 0.74648899)
(0.8574872 0.69611132 0.74604428)
(0.85948128 0.69759971 0.74559861)
(0.86146301 0.69907367 0.7451545)
(0.86344618 0.70054537 0.74470907)
(0.86544472 0.70202851 0.7442596)
(0.86744583 0.70350879 0.74380833)
(0.86944121 0.70498163 0.74335748)
(0.87144542 0.7064566 0.74290371)
(0.8734557 0.70793688 0.74244791)
(0.87545878 0.70940483 0.74199259)
(0.8774572 0.71086711 0.74153757)
(0.87946552 0.71233398 0.74107951)
(0.8814742 0.71379918 0.74062067)
(0.88347042 0.7152496 0.7401638)
(0.88546813 0.71669769 0.73970568)
(0.88748127 0.7181564 0.73924363)
(0.88949728 0.71961218 0.73878002)
(0.89150709 0.72105992 0.73831707)
(0.8935253 0.72250909 0.73785138)
(0.89555132 0.72396427 0.7373836)
(0.89757121 0.7254079 0.73691618)
(0.8995862 0.7268455 0.73644942)
(0.90161067 0.72828692 0.7359798)
(0.9036355 0.72972649 0.73550957)
(0.9056477 0.7311511 0.7350415)
(0.90766138 0.73257327 0.73457241)
(0.90969068 0.73400557 0.73409933)
(0.9117226 0.73543501 0.73362488)
(0.91374791 0.7368558 0.73315138)
(0.91578108 0.73827767 0.73267531)
(0.91782337 0.73970628 0.73219681)
(0.9198609 0.74112439 0.7317186)
(0.92189258 0.74253619 0.73124123)
(0.92393351 0.74395132 0.73076099)
(0.92597443 0.74536479 0.73028028)
(0.92800248 0.74676353 0.72980189)
(0.9300316 0.74815989 0.72932249)
(0.9320761 0.74956632 0.72883898)
(0.93412298 0.75097001 0.7283541)
(0.93616247 0.75236511 0.72787029)
(0.93820912 0.75376111 0.72738397)
(0.94026572 0.75516498 0.72689468)
(0.9423185 0.75655973 0.72640538)
(0.94436461 0.7579484 0.7259168)
(0.94641888 0.75934029 0.72542548)
(0.9484728 0.76073128 0.72493339)
(0.95051301 0.76210803 0.72444338)
(0.95255369 0.76348323 0.72395241)
(0.95460922 0.7648685 0.72345692)
(0.95666617 0.7662521 0.72295982)
(0.95871472 0.76762742 0.72246349)
(0.96076912 0.76900429 0.7219646)
(0.96283448 0.77039093 0.72146177)
(0.96489787 0.77177107 0.72095788)
(0.9669615 0.7731505 0.72045243)
(0.969078 0.77455831 0.71993208)
(0.97145051 0.77609992 0.71934509)
(0.75801039 0.61764371 -0.76692241)
(0.75975132 0.6192109 -0.76657909)
(0.7615993 0.62078857 -0.76620859)
(0.76347268 0.62236828 -0.76583362)
(0.76535702 0.62394822 -0.76545769)
(0.7672413 0.62551689 -0.76508182)
(0.76913011 0.62708223 -0.76470512)
(0.7710346 0.62865752 -0.7643252)
(0.7729848 0.63026279 -0.76393509)
(0.77519441 0.63207239 -0.76349127)
(0.8412779 0.68399131 -0.74963701)
(0.84350008 0.6856131 -0.74914342)
(0.8455264 0.68713289 -0.74869668)
(0.84752172 0.68863702 -0.74825692)
(0.84951609 0.69013977 -0.74781632)
(0.85150772 0.69163507 -0.74737501)
(0.85349679 0.69312608 -0.74693328)
(0.85548902 0.69461942 -0.74649012)
(0.85747892 0.69610631 -0.7460463)
(0.8594681 0.69758809 -0.74560142)
(0.86145508 0.69906652 -0.74515623)
(0.86344498 0.70054692 -0.74470961)
(0.86543512 0.70202172 -0.7442618)
(0.86743039 0.7034961 -0.74381173)
(0.86943042 0.70497298 -0.74335992)
(0.87143618 0.70645207 -0.74290597)
(0.8734405 0.70792443 -0.74245119)
(0.87544417 0.70939308 -0.74199581)
(0.8774513 0.71086389 -0.741539)
(0.87945598 0.71232831 -0.74108177)
(0.88145977 0.7137869 -0.74062389)
(0.88346142 0.71524191 -0.74016571)
(0.88546598 0.71669841 -0.7397064)
(0.88747078 0.71814913 -0.73924607)
(0.88948083 0.71959901 -0.73878372)
(0.89149529 0.7210508 -0.73831969)
(0.89351571 0.7225045 -0.73785383)
(0.89553487 0.72395128 -0.7373873)
(0.89755481 0.7253952 -0.73692)
(0.89957857 0.72684109 -0.73645121)
(0.90159988 0.72828048 -0.73598242)
(0.90361989 0.72971362 -0.73551309)
(0.90563768 0.73114282 -0.7350437)
(0.9076584 0.73257339 -0.7345733)
(0.90967917 0.73399788 -0.73410201)
(0.91170508 0.7354213 -0.73362893)
(0.91373509 0.73684621 -0.7331543)
(0.91577089 0.73827291 -0.73267788)
(0.91780567 0.73969281 -0.73220092)
(0.91984248 0.74111068 -0.73172289)
(0.9218834 0.7425307 -0.73124337)
(0.92392141 0.74394429 -0.73076397)
(0.92595762 0.74535131 -0.73028421)
(0.92799121 0.74675471 -0.7298044)
(0.93002748 0.74815929 -0.72932363)
(0.93206358 0.74955809 -0.72884202)
(0.93410438 0.75095588 -0.72835851)
(0.9361487 0.75235492 -0.7278735)
(0.93819833 0.75375599 -0.72738671)
(0.9402467 0.75515097 -0.72689921)
(0.94229817 0.75654501 -0.72641021)
(0.9443537 0.75794178 -0.72591949)
(0.94640559 0.75933272 -0.7254287)
(0.94845468 0.76071727 -0.72493762)
(0.95050073 0.76209873 -0.72444642)
(0.95254862 0.76348191 -0.72395378)
(0.95459563 0.76485991 -0.7234602)
(0.95664662 0.7662375 -0.72296453)
(0.9587 0.76761681 -0.72246712)
(0.96075779 0.76899898 -0.7219674)
(0.96281391 0.77037609 -0.72146672)
(0.96487403 0.77175438 -0.72096372)
(0.96693909 0.77313799 -0.72045797)
(0.96900833 0.77452463 -0.71994978)
(0.97112173 0.77594948 -0.71942919)
(0.97349793 0.77761739 -0.7188437)
(0.75739861 0.61713958 0.76704931)
(0.7594353 0.61894327 0.76664311)
(0.76135463 0.62058169 0.7662577)
(0.76326579 0.62219399 0.76587492)
(0.76516658 0.62378681 0.7654953)
(0.76706147 0.62536627 0.76511753)
(0.76897901 0.62695742 0.76473528)
(0.77090353 0.62854809 0.76435119)
(0.77281648 0.63012481 0.76396888)
(0.77476251 0.63173169 0.76357979)
(0.77687269 0.63351941 0.76316309)
(0.75232691 0.61047059 0.76894879)
(0.75374639 0.61031598 0.76837891)
(0.7821117 0.63778222 -0.7621004)
(0.7843163 0.63950193 -0.76164317)
(0.7863158 0.64110452 -0.76123428)
(0.78827077 0.64267403 -0.76083457)
(0.79023367 0.64424729 -0.76043278)
(0.79220319 0.64581883 -0.76002848)
(0.79415733 0.64737719 -0.75962698)
(0.79610991 0.64892942 -0.75922477)