/*--------------------------------*- C++ -*----------------------------------*\
| =========                 |                                                 |
| \\      /  F ield         | OpenFOAM: The Open Source CFD Toolbox           |
|  \\    /   O peration     | Version:  v1812                                 |
|   \\  /    A nd           | Web:      www.OpenFOAM.com                      |
|    \\/     M anipulation  |                                                 |
\*---------------------------------------------------------------------------*/
FoamFile
{
    version     2.0;
    format      ascii;
    class       extendedFeatureEdgeMesh;
    location    "constant/extendedFeatureEdgeMesh";
    object      windows.extendedFeatureEdgeMesh;
}
// * * * * * * * * * * * * * * * * * * * * * * * * * * * * * * * * * * * * * //

// points

4266
(
(1.816993 0.65793282 -0.77448148)
(1.872149 1.000586 -0.612342)
(2.599483 0.68336779 -0.74122328)
(2.4826231 0.90794981 -0.64985561)
(2.6578741 0.68819177 0.7361719)
(2.5512891 0.8893562 0.65623438)
(2.6578741 0.68819177 -0.7361719)
(2.5512891 0.8893562 -0.65623438)
(2.795893 0.93631089 0.54631621)
(1.816993 0.65793282 0.77448159)
(1.872149 1.000586 0.61234188)
(2.599483 0.68336779 0.74122339)
(2.4826231 0.90794992 0.64985561)
(1.53 0.6480087 0.77790183)
(1.636465 0.65192568 0.77711499)
(1.53 0.99525219 0.61543632)
(1.756538 1.0056 0.60978341)
(2.795893 0.93631089 -0.54631621)
(1.53 0.6480087 -0.77790183)
(1.636465 0.65192568 -0.77711499)
(1.53 0.99525207 -0.61543632)
(1.756538 1.0056 -0.60978341)
(1.819484 0.65800989 -0.77443349)
(1.817353 0.66029072 -0.77374321)
(1.817713 0.66264731 -0.7730006)
(1.822058 0.65808952 -0.77438349)
(1.818077 0.66502589 -0.77224618)
(1.8245929 0.6581676 -0.77433401)
(1.818449 0.66744989 -0.77147257)
(1.81881 0.66979432 -0.77071953)
(1.827116 0.65824533 -0.77428442)
(1.819172 0.67214859 -0.76995867)
(1.829633 0.65832257 -0.77423447)
(1.819543 0.6745556 -0.76917589)
(1.832238 0.6584025 -0.77418262)
(1.819911 0.67694998 -0.76839232)
(1.834743 0.65847921 -0.77413231)
(1.8202749 0.67930877 -0.7676155)
(1.820636 0.6816504 -0.76683968)
(1.837265 0.65855622 -0.77408141)
(1.8210109 0.68408328 -0.7660287)
(1.839813 0.65863389 -0.77402961)
(1.821376 0.6864447 -0.76523668)
(1.842378 0.65871203 -0.77397722)
(1.821741 0.6888079 -0.76443923)
(1.822107 0.69117153 -0.76363683)
(1.84488 0.65878803 -0.77392572)
(1.82248 0.69358069 -0.76281399)
(1.847373 0.6588636 -0.77387398)
(1.82284 0.6959101 -0.76201361)
(1.8499449 0.65894139 -0.77382052)
(1.823203 0.69824821 -0.76120549)
(1.823573 0.70063192 -0.76037669)
(1.852482 0.65901798 -0.77376729)
(1.8239419 0.7030127 -0.75954401)
(1.855002 0.65909398 -0.77371413)
(1.824306 0.70535362 -0.75872052)
(1.857518 0.65916967 -0.77366072)
(1.824667 0.7076773 -0.75789827)
(1.825042 0.71009052 -0.75703943)
(1.8601201 0.65924788 -0.77360523)
(1.825408 0.712439 -0.75619859)
(1.862627 0.65932298 -0.77355129)
(1.825774 0.7147885 -0.75535262)
(1.865152 0.6593985 -0.77349681)
(1.82614 0.71713418 -0.75450307)
(1.8265131 0.71952778 -0.75363129)
(1.867698 0.65947461 -0.77344149)
(1.826874 0.72184169 -0.75278372)
(1.870266 0.65955108 -0.77338541)
(1.827237 0.72416377 -0.75192833)
(1.872766 0.65962547 -0.77333039)
(1.827606 0.72652811 -0.75105238)
(1.827976 0.72889179 -0.7501719)
(1.8752609 0.65969962 -0.77327532)
(1.828339 0.73121399 -0.74930191)
(1.877831 0.65977567 -0.7732181)
(1.8286999 0.73351908 -0.74843347)
(1.829075 0.73591173 -0.74752718)
(1.88037 0.65985078 -0.77316141)
(1.82944 0.7382434 -0.74663901)
(1.882889 0.65992522 -0.77310479)
(1.829806 0.74057531 -0.74574578)
(1.885402 0.65999931 -0.77304798)
(1.830171 0.74290133 -0.74484998)
(1.8305449 0.74527878 -0.74392933)
(1.888002 0.66007572 -0.77298892)
(1.830906 0.74757707 -0.74303442)
(1.890512 0.6601494 -0.77293152)
(1.831269 0.74988288 -0.74213183)
(1.831638 0.75222683 -0.74120933)
(1.893038 0.66022342 -0.77287352)
(1.832008 0.754574 -0.74028051)
(1.895583 0.66029781 -0.77281469)
(1.83237 0.75687551 -0.73936492)
(1.832731 0.75916082 -0.738451)
(1.8981529 0.66037279 -0.77275509)
(1.833105 0.76152879 -0.737499)
(1.9006521 0.66044551 -0.77269667)
(1.8334709 0.76384503 -0.73656273)
(1.833837 0.76616079 -0.73562169)
(1.903149 0.66051811 -0.7726382)
(1.834201 0.76846528 -0.73468041)
(1.905718 0.66059262 -0.77257758)
(1.8345751 0.77082813 -0.73371023)
(1.908258 0.66066611 -0.77251738)
(1.834937 0.77310961 -0.73276842)
(1.835299 0.77539742 -0.73181921)
(1.910776 0.66073883 -0.77245748)
(1.835667 0.77771902 -0.73085099)
(1.836037 0.7800492 -0.72987407)
(1.913287 0.66081119 -0.7723974)
(1.8364 0.7823298 -0.72891313)
(1.915884 0.66088599 -0.77233487)
(1.836759 0.7845937 -0.72795433)
(1.837132 0.7869392 -0.72695589)
(1.918396 0.66095811 -0.77227408)
(1.8374979 0.78923881 -0.72597188)
(1.920925 0.66103047 -0.77221268)
(1.837864 0.79153711 -0.72498357)
(1.923467 0.66110319 -0.77215058)
(1.838227 0.79382002 -0.72399688)
(1.838601 0.79616392 -0.72297871)
(1.926041 0.66117662 -0.77208751)
(1.838962 0.79842877 -0.72198993)
(1.839325 0.80069959 -0.72099358)
(1.928538 0.66124767 -0.772026)
(1.839692 0.80299878 -0.7199797)
(1.9310369 0.6613186 -0.77196407)
(1.840062 0.80531079 -0.71895522)
(1.8404239 0.80756921 -0.71794939)
(1.933604 0.66139138 -0.77190018)
(1.840783 0.80981487 -0.7169444)
(1.9361449 0.66146332 -0.7718367)
(1.8411551 0.81213778 -0.71589983)
(1.84152 0.81441969 -0.71486849)
(1.9386621 0.66153431 -0.77177352)
(1.841885 0.81669831 -0.71383369)
(1.9411711 0.66160488 -0.7717101)
(1.842248 0.81895912 -0.71280187)
(1.842621 0.821284 -0.71173573)
(1.943767 0.66167778 -0.77164441)
(1.8429821 0.8235302 -0.71070057)
(1.843344 0.82578182 -0.70965803)
(1.94628 0.66174829 -0.7715804)
(1.843711 0.82805878 -0.70859861)
(1.9488111 0.66181898 -0.77151561)
(1.84408 0.83035243 -0.70752633)
(1.84444 0.83258879 -0.70647579)
(1.951352 0.66188979 -0.7714504)
(1.844798 0.83481503 -0.70542508)
(1.953927 0.6619615 -0.77138388)
(1.8451689 0.8371138 -0.70433497)
(1.845534 0.83937591 -0.70325708)
(1.956423 0.6620307 -0.77131921)
(1.845898 0.84163111 -0.70217752)
(1.84626 0.84386879 -0.70110118)
(1.9589241 0.6620999 -0.77125412)
(1.846633 0.84617442 -0.69998699)
(1.961489 0.66217071 -0.77118713)
(1.846994 0.84840119 -0.69890583)
(1.847355 0.85063291 -0.69781721)
(1.9640321 0.66224062 -0.77112031)
(1.84772 0.85288572 -0.69671321)
(1.848088 0.85515672 -0.69559509)
(1.966547 0.66230959 -0.77105403)
(1.848447 0.8573693 -0.69450068)
(1.9690551 0.66237819 -0.77098757)
(1.848804 0.85957563 -0.69340438)
(1.8491729 0.8618499 -0.69226921)
(1.971648 0.662449 -0.77091873)
(1.849537 0.86409009 -0.69114578)
(1.8499 0.86631751 -0.6900236)
(1.974164 0.66251743 -0.77085161)
(1.85026 0.86852819 -0.68890482)
(1.850632 0.87081581 -0.68774188)
(1.976697 0.66258609 -0.77078372)
(1.850992 0.87302279 -0.68661469)
(1.9792351 0.6626547 -0.77071542)
(1.851352 0.87523383 -0.68548042)
(1.851716 0.87746269 -0.68433172)
(1.981814 0.66272408 -0.77064568)
(1.852083 0.87971348 -0.68316662)
(1.85244 0.8819012 -0.68202901)
(1.9843071 0.66279107 -0.77057809)
(1.852798 0.88408703 -0.68088728)
(1.853165 0.8863343 -0.6797083)
(1.986811 0.66285813 -0.7705099)
(1.853528 0.88855582 -0.67853749)
(1.989374 0.6629265 -0.7704398)
(1.8538899 0.89076072 -0.67737043)
(1.854248 0.89294839 -0.67620718)
(1.991919 0.66299409 -0.77037001)
(1.854619 0.89521188 -0.67499828)
(1.854978 0.89739782 -0.67382568)
(1.994433 0.66306072 -0.77030069)
(1.855337 0.89958721 -0.67264611)
(1.8556989 0.90179187 -0.671453)
(1.996938 0.66312689 -0.77023143)
(1.856065 0.90402091 -0.67024142)
(1.85642 0.9061836 -0.66906083)
(1.9995281 0.66319501 -0.77015948)
(1.856776 0.90834731 -0.66787452)
(1.857142 0.91056859 -0.66665119)
(2.0020471 0.66326112 -0.77008933)
(1.857504 0.91276753 -0.66543502)
(2.0045829 0.66332728 -0.7700184)
(1.857864 0.91494763 -0.66422403)
(1.8582211 0.9171108 -0.66301727)
(1.85859 0.91935122 -0.661762)
(2.0071189 0.66339332 -0.76994717)
(1.858947 0.92151457 -0.66054451)
(2.0097001 0.66346031 -0.76987439)
(1.859306 0.92368269 -0.65931928)
(1.859668 0.92587531 -0.6580748)
(2.012192 0.66352469 -0.76980388)
(1.860033 0.92807859 -0.65681881)
(1.860388 0.93021828 -0.65559399)
(2.014698 0.66358918 -0.76973277)
(1.860742 0.93235689 -0.65436459)
(1.861105 0.93455487 -0.6530956)
(2.0172589 0.66365492 -0.7696597)
(1.861465 0.93672818 -0.65183562)
(1.861823 0.93888402 -0.65058041)
(2.0198059 0.66372001 -0.76958692)
(1.862178 0.94102281 -0.6493299)
(1.862546 0.94323671 -0.64802998)
(2.0223179 0.66378391 -0.7695148)
(1.862901 0.94537431 -0.64676958)
(1.8632571 0.94751489 -0.64550209)
(2.024821 0.66384739 -0.76944262)
(1.863616 0.94966853 -0.6442216)
(1.863979 0.95184797 -0.6429202)
(2.02741 0.66391289 -0.76936781)
(1.864331 0.95396101 -0.6416533)
(1.864683 0.95607579 -0.64038002)
(1.865045 0.95824569 -0.63906819)
(2.0299301 0.66397631 -0.76929462)
(1.8654031 0.96039522 -0.63776332)
(2.032465 0.66403991 -0.76922071)
(1.865759 0.9625237 -0.63646579)
(1.866112 0.96463531 -0.6351732)
(1.866478 0.96682459 -0.63382751)
(2.0349989 0.66410333 -0.76914662)
(1.8668309 0.96893817 -0.632523)
(1.867186 0.9710542 -0.63121158)
(2.0375831 0.6641677 -0.7690708)
(1.867542 0.97318089 -0.6298883)
(1.867902 0.975335 -0.6285423)
(2.0400751 0.66422951 -0.76899737)
(1.868252 0.97742051 -0.6272338)
(1.868603 0.97951078 -0.62591708)
(2.042582 0.66429162 -0.76892322)
(1.868962 0.98165178 -0.62456298)
(1.869319 0.98377609 -0.62321389)
(2.0451419 0.66435468 -0.76884729)
(1.8696719 0.98587602 -0.62187481)
(1.8700221 0.98795938 -0.62054098)
(1.870386 0.99012321 -0.61914998)
(2.0476911 0.66441733 -0.76877129)
(1.870738 0.992212 -0.61780173)
(1.8710901 0.99430257 -0.61644691)
(2.0502019 0.66447878 -0.76869619)
(1.871443 0.99640089 -0.61508161)
(1.871802 0.99852908 -0.61369121)
(2.0527029 0.66453987 -0.76862121)
(1.874679 1.000419 -0.61242467)
(2.055289 0.66460282 -0.7685433)
(1.877208 1.0002511 -0.6125071)
(2.057812 0.66466397 -0.76846701)
(1.879728 1.000083 -0.6125896)
(2.060344 0.66472518 -0.76839018)
(1.88231 0.99990839 -0.61267507)
(2.062875 0.66478622 -0.76831311)
(1.8848079 0.99973679 -0.61275911)
(2.0654631 0.66484839 -0.7682339)
(1.887315 0.99956203 -0.61284471)
(2.0679569 0.66490811 -0.76815742)
(1.88986 0.9993822 -0.6129325)
(2.070467 0.66496807 -0.76808)
(1.892415 0.99920011 -0.61302131)
(2.073025 0.66502899 -0.7680009)
(1.894919 0.99901962 -0.61310911)
(2.075577 0.66508961 -0.76792169)
(1.897406 0.99883831 -0.61319721)
(2.0780849 0.66514897 -0.76784348)
(1.899985 0.99864823 -0.61328942)
(2.080584 0.6652081 -0.7677654)
(1.902514 0.99845982 -0.61338067)
(1.905044 0.99826932 -0.61347288)
(2.083168 0.6652689 -0.76768428)
(1.907559 0.99807793 -0.61356533)
(2.0856929 0.66532832 -0.76760471)
(1.9101419 0.99787933 -0.61366111)
(2.088223 0.66538757 -0.7675246)
(1.912639 0.99768531 -0.61375451)
(2.0907509 0.6654467 -0.76744431)
(1.915146 0.99748868 -0.61384898)
(2.093343 0.6655072 -0.7673617)
(1.917686 0.99728739 -0.61394572)
(2.095839 0.66556519 -0.76728177)
(1.920242 0.99708301 -0.61404371)
(2.098351 0.66562361 -0.76720113)
(1.9227411 0.99688119 -0.61414027)
(2.1009071 0.66568279 -0.76711869)
(1.925227 0.99667847 -0.61423719)
(2.103462 0.66574192 -0.7670359)
(1.927801 0.99646682 -0.6143384)
(2.105969 0.6657998 -0.76695442)
(1.93033 0.99625671 -0.61443847)
(2.1084659 0.66585732 -0.76687288)
(1.9328589 0.99604481 -0.61453938)
(2.1110461 0.66591668 -0.76678842)
(1.935369 0.9958325 -0.61464041)
(2.113574 0.66597468 -0.76670527)
(1.937952 0.9956122 -0.61474502)
(2.116102 0.66603261 -0.76662183)
(1.94045 0.99539733 -0.614847)
(2.1186271 0.66609043 -0.76653808)
(1.942956 0.99517989 -0.61494988)
(2.121223 0.6661498 -0.7664516)
(1.945493 0.99495792 -0.61505502)
(2.1237209 0.66620678 -0.76636821)
(1.948048 0.99473238 -0.61516148)
(2.126235 0.66626412 -0.76628381)
(1.950542 0.99451041 -0.6152662)
(2.1287889 0.66632217 -0.7661978)
(1.953028 0.99428749 -0.61537129)
(2.131346 0.66638041 -0.76611131)
(1.955597 0.99405521 -0.6154806)
(2.133852 0.66643733 -0.7660262)
(1.9581259 0.99382472 -0.61558902)
(2.1363461 0.66649389 -0.76594108)
(1.96065 0.9935928 -0.61569792)
(2.1389251 0.66655242 -0.76585281)
(1.9631571 0.9933607 -0.6158067)
(2.141454 0.6666097 -0.76576591)
(1.96574 0.99311972 -0.61591959)
(2.14398 0.66666692 -0.7656787)
(1.968238 0.99288487 -0.61602938)
(2.146503 0.66672403 -0.76559132)
(1.9707429 0.99264759 -0.61614031)
(1.973276 0.99240601 -0.61625302)
(2.149102 0.66678292 -0.76550078)
(1.975831 0.99216038 -0.61636752)
(2.151602 0.66683942 -0.7654134)
(1.978321 0.99191928 -0.61647969)
(2.1541181 0.66689628 -0.76532513)
(1.980806 0.99167699 -0.61659241)
(2.1566701 0.66695398 -0.76523519)
(1.983371 0.99142522 -0.61670929)
(2.159229 0.66701192 -0.76514471)
(1.9859 0.991175 -0.6168254)
(2.1617341 0.66706848 -0.76505572)
(1.9884191 0.99092412 -0.61694157)
(2.1642261 0.66712493 -0.76496679)
(1.990922 0.99067318 -0.61705768)
(2.1668019 0.66718322 -0.76487452)
(1.993505 0.99041241 -0.61717832)
(2.1693339 0.6672405 -0.76478338)
(1.996002 0.99015862 -0.6172955)
(2.1718581 0.66729772 -0.76469219)
(1.998507 0.98990232 -0.61741358)
(2.174377 0.6673547 -0.76460081)
(2.001035 0.98964179 -0.61753362)
(2.17698 0.66741377 -0.76450598)
(2.0035901 0.98937702 -0.6176554)
(2.179482 0.66747051 -0.76441443)
(2.0060761 0.9891175 -0.61777461)
(2.1819999 0.66752768 -0.76432192)
(2.0085599 0.98885667 -0.61789429)
(2.18455 0.66758567 -0.76422781)
(2.0111201 0.98858619 -0.61801833)
(2.1871121 0.66764402 -0.7641328)
(2.013648 0.98831719 -0.61814147)
(2.1896141 0.66770101 -0.7640397)
(2.0161641 0.98804802 -0.61826462)
(2.1921051 0.66775781 -0.76394659)
(2.018661 0.98777902 -0.6183874)
(2.1946781 0.66781658 -0.76384997)
(2.021244 0.98749912 -0.61851507)
(2.197212 0.66787452 -0.76375443)
(2.023742 0.9872269 -0.61863917)
(2.0262451 0.9869523 -0.61876422)
(2.199734 0.66793227 -0.76365888)
(2.02877 0.98667371 -0.61889082)
(2.202251 0.66799003 -0.76356322)
(2.031323 0.98639017 -0.61901951)
(2.204855 0.66804987 -0.7634638)
(2.0338061 0.98611307 -0.61914521)
(2.2073591 0.66810763 -0.76336771)
(2.036289 0.98583418 -0.61927152)
(2.2098801 0.66816568 -0.76327062)
(2.0388429 0.98554569 -0.61940211)
(2.2124269 0.66822457 -0.76317197)
(2.0413721 0.9852584 -0.61953193)
(2.2149911 0.668284 -0.76307237)
(2.0438819 0.98497158 -0.61966127)
(2.2174921 0.66834211 -0.76297468)
(2.046375 0.98468512 -0.61979049)
(2.2199841 0.66840011 -0.76287699)
(2.0489581 0.9843865 -0.6199249)
(2.2225561 0.66846007 -0.76277578)
(2.051455 0.98409641 -0.62005538)
(2.225091 0.66851938 -0.76267552)
(2.0539579 0.98380393 -0.62018669)
(2.2276111 0.66857851 -0.76257539)
(2.056479 0.98350757 -0.6203196)
(2.2301259 0.66863757 -0.76247501)
(2.059032 0.98320597 -0.62045479)
(2.2327271 0.66869891 -0.76237071)
(2.0615089 0.98291159 -0.62058651)
(2.2352331 0.66875821 -0.76226991)
(2.063992 0.98261511 -0.62071908)
(2.237756 0.668818 -0.76216781)
(2.066541 0.98230892 -0.62085569)
(2.0690689 0.98200369 -0.62099183)
(2.2403009 0.66887861 -0.7620644)
(2.0715749 0.98169959 -0.62112719)
(2.2428679 0.66893983 -0.76195967)
(2.074064 0.9813959 -0.62126231)
(2.2453671 0.66899967 -0.76185727)
(2.076647 0.9810791 -0.62140298)
(2.2478609 0.66905957 -0.76175469)
(2.079143 0.98077118 -0.62153959)
(2.2504301 0.6691215 -0.76164842)
(2.081645 0.98046112 -0.62167698)
(2.2529669 0.6691829 -0.76154298)
(2.084162 0.9801476 -0.62181568)
(2.2554851 0.66924399 -0.76143801)
(2.086714 0.979828 -0.621957)
(2.257998 0.66930521 -0.76133269)
(2.0891869 0.97951669 -0.62209439)
(2.260597 0.6693688 -0.76122332)
(2.0916691 0.97920269 -0.62223268)
(2.263104 0.66943038 -0.76111722)
(2.094213 0.97887927 -0.62237519)
(2.2656291 0.6694926 -0.76100987)
(2.09674 0.97855628 -0.62251723)
(2.268173 0.6695556 -0.76090139)
(2.099241 0.97823513 -0.62265819)
(2.270741 0.66961938 -0.7607913)
(2.1017251 0.97791457 -0.62279868)
(2.2732389 0.66968179 -0.76068372)
(2.1043079 0.97757971 -0.62294543)
(2.2757339 0.66974431 -0.76057577)
(2.1068039 0.97725439 -0.6230877)
(2.278302 0.66980898 -0.76046419)
(2.109304 0.97692692 -0.62323081)
(2.2808399 0.66987318 -0.76035339)
(2.1118169 0.97659618 -0.623375)
(2.114368 0.97625881 -0.62352198)
(2.2833569 0.66993707 -0.76024312)
(2.116837 0.97593081 -0.62366468)
(2.285867 0.67000121 -0.76013249)
(2.1193171 0.97559959 -0.62380862)
(2.2884631 0.67006773 -0.76001757)
(2.1218569 0.97525901 -0.62395638)
(2.2909729 0.6701324 -0.75990599)
(2.124383 0.97491843 -0.62410402)
(2.2934999 0.67019778 -0.75979322)
(2.126879 0.97458041 -0.62425017)
(2.296041 0.67026401 -0.7596792)
(2.1293581 0.9742431 -0.62439603)
(2.2986121 0.67033118 -0.75956333)
(2.131937 0.9738906 -0.62454808)
(2.3011069 0.6703968 -0.75945032)
(2.134433 0.97354782 -0.62469578)
(2.3036051 0.67046279 -0.75933671)
(2.1369331 0.97320288 -0.62484431)
(2.30617 0.67053092 -0.75921953)
(2.1394401 0.97285533 -0.62499362)
(2.3087089 0.67059869 -0.75910288)
(2.1419909 0.97250009 -0.62514609)
(2.311224 0.67066628 -0.75898689)
(2.144459 0.9721548 -0.62529409)
(2.3137319 0.67073399 -0.75887072)
(2.1469381 0.97180641 -0.62544322)
(2.3163259 0.67080438 -0.75875002)
(2.149472 0.97144872 -0.62559599)
(2.151998 0.9710905 -0.62574887)
(2.3188369 0.67087299 -0.75863248)
(2.154489 0.97073561 -0.62590009)
(2.3213661 0.67094243 -0.75851369)
(2.1569631 0.97038162 -0.62605077)
(2.323905 0.67101252 -0.75839388)
(2.1595359 0.97001177 -0.62620789)
(2.326479 0.67108399 -0.75827187)
(2.1620319 0.9696514 -0.62636077)
(2.3289721 0.67115372 -0.75815308)
(2.164531 0.969289 -0.62651438)
(2.331471 0.67122388 -0.75803351)
(2.1670339 0.9689244 -0.62666857)
(2.334034 0.67129642 -0.75791031)
(2.169584 0.96855122 -0.62682629)
(2.336575 0.67136878 -0.75778753)
(2.172051 0.96818858 -0.62697917)
(2.339088 0.67144072 -0.75766557)
(2.1745291 0.96782279 -0.62713331)
(2.341593 0.6715129 -0.75754339)
(2.177058 0.96744788 -0.62729102)
(2.3441839 0.67158812 -0.75741649)
(2.1795821 0.96707201 -0.62744892)
(2.1820691 0.96670008 -0.6276049)
(2.346698 0.67166138 -0.75729281)
(2.1845379 0.96632922 -0.62776017)
(2.3492291 0.67173582 -0.75716758)
(2.187104 0.96594203 -0.62792212)
(2.3517649 0.67181081 -0.75704169)
(2.189599 0.96556389 -0.62807989)
(2.354341 0.67188752 -0.75691313)
(2.1920969 0.96518368 -0.62823838)
(2.356832 0.6719622 -0.75678807)
(2.1945951 0.96480203 -0.62839729)
(2.359333 0.6720376 -0.75666219)
(2.197145 0.9644106 -0.62856001)
(2.3618939 0.67211539 -0.75653249)
(2.1996109 0.96403039 -0.62871778)
(2.3644359 0.67219323 -0.75640321)
(2.2020881 0.96364701 -0.62887663)
(2.3669469 0.67227048 -0.75627488)
(2.2046111 0.96325469 -0.62903887)
(2.3694501 0.6723482 -0.75614637)
(2.207134 0.9628607 -0.62920171)
(2.3720379 0.67242903 -0.75601292)
(2.209615 0.9624716 -0.62936223)
(2.374553 0.67250818 -0.75588262)
(2.212079 0.96208358 -0.62952203)
(2.2146389 0.9616788 -0.62968838)
(2.3770859 0.67258841 -0.75575072)
(2.217134 0.96128261 -0.6298511)
(2.3796201 0.67266929 -0.7556181)
(2.219631 0.96088427 -0.63001442)
(2.3821981 0.6727522 -0.75548261)
(2.2221229 0.9604851 -0.63017768)
(2.3846869 0.67283291 -0.75535113)
(2.2246721 0.9600752 -0.63034528)
(2.3871889 0.67291462 -0.75521839)
(2.2271371 0.95967698 -0.63050771)
(2.3897481 0.67299879 -0.75508189)
(2.2296121 0.9592756 -0.6306712)
(2.3922911 0.67308301 -0.7549457)
(2.2321291 0.95886558 -0.63083798)
(2.3947999 0.67316681 -0.75481057)
(2.234652 0.95845312 -0.63100553)
(2.397301 0.67325097 -0.75467539)
(2.2371271 0.9580465 -0.63117039)
(2.3998859 0.67333859 -0.7545349)
(2.2395861 0.95764101 -0.63133448)
(2.2421379 0.95721829 -0.63150531)
(2.4024031 0.67342472 -0.75439751)
(2.244633 0.95680338 -0.63167268)
(2.4049339 0.67351192 -0.75425857)
(2.247129 0.95638663 -0.63184071)
(2.407465 0.67359978 -0.7541191)
(2.249615 0.95596957 -0.63200837)
(2.4100449 0.67369008 -0.75397623)
(2.2521629 0.95554048 -0.63218069)
(2.4125321 0.67377788 -0.7538377)
(2.254627 0.95512378 -0.63234782)
(2.415036 0.67386693 -0.75369769)
(2.2571001 0.95470393 -0.63251591)
(2.417593 0.6739586 -0.75355411)
(2.2596109 0.95427573 -0.63268697)
(2.4201379 0.67405069 -0.75341028)
(2.2621319 0.95384407 -0.63285917)
(2.4226451 0.67414212 -0.75326812)
(2.2646019 0.95341951 -0.63302839)
(2.425142 0.67423391 -0.75312573)
(2.267055 0.95299602 -0.63319677)
(2.2695999 0.952555 -0.63337201)
(2.4277239 0.6743297 -0.75297779)
(2.272094 0.9521209 -0.63354409)
(2.430243 0.67442387 -0.75283277)
(2.2745881 0.95168489 -0.63371658)
(2.432771 0.67451918 -0.75268662)
(2.2770691 0.9512496 -0.6338886)
(2.435298 0.67461538 -0.75253969)
(2.2796149 0.95080078 -0.63406569)
(2.4378819 0.67471451 -0.75238878)
(2.282078 0.95036501 -0.63423729)
(2.440371 0.67481089 -0.75224268)
(2.284549 0.94992602 -0.6344099)
(2.4428761 0.6749087 -0.75209498)
(2.2870541 0.9494791 -0.63458538)
(2.44543 0.67500931 -0.75194359)
(2.289573 0.94902778 -0.63476229)
(2.292037 0.94858462 -0.63493568)
(2.4479771 0.67511052 -0.75179189)
(2.294487 0.94814199 -0.63510859)
(2.4504809 0.67521101 -0.75164211)
(2.297025 0.94768173 -0.63528812)
(2.452976 0.67531192 -0.75149208)
(2.2995169 0.9472276 -0.63546503)
(2.455554 0.67541718 -0.75133622)
(2.3020091 0.94677168 -0.63564217)
(2.458075 0.67552102 -0.75118321)
(2.3044839 0.94631708 -0.63581872)
(2.4605999 0.67562598 -0.75102907)
(2.307029 0.94584757 -0.63600069)
(2.4631231 0.6757319 -0.75087428)
(2.30949 0.94539177 -0.636177)
(2.4657099 0.67584151 -0.7507149)
(2.3119581 0.9449327 -0.63635439)
(2.4682 0.6759479 -0.75056058)
(2.3144569 0.94446611 -0.63653427)
(2.3169739 0.94399422 -0.63671601)
(2.4707069 0.67605609 -0.7504046)
(2.319432 0.94353151 -0.63689381)
(2.473258 0.67616719 -0.75024498)
(2.3218801 0.9430688 -0.63707137)
(2.475806 0.67627931 -0.75008482)
(2.32441 0.94258851 -0.63725537)
(2.478308 0.67639041 -0.74992669)
(2.326901 0.94211382 -0.63743699)
(2.4807999 0.67650199 -0.74976861)
(2.329386 0.94163799 -0.6376186)
(2.4833751 0.67661852 -0.74960423)
(2.3318541 0.94116372 -0.63779938)
(2.4858971 0.67673367 -0.74944252)
(2.334398 0.94067281 -0.6379863)
(2.4884191 0.67685008 -0.74927998)
(2.3368559 0.94019628 -0.63816732)
(2.3393221 0.93971652 -0.63834941)
(2.4909379 0.6769675 -0.74911678)
(2.341815 0.93922919 -0.63853389)
(2.4935279 0.67708927 -0.74894822)
(2.3443291 0.93873578 -0.63872051)
(2.4960189 0.67720771 -0.7487852)
(2.3467801 0.93825269 -0.6389029)
(2.4985271 0.67732799 -0.74862027)
(2.349225 0.93776888 -0.63908529)
(2.501075 0.67745137 -0.74845189)
(2.351748 0.93726742 -0.639274)
(2.5036249 0.6775763 -0.74828249)
(2.3542359 0.9367708 -0.63946062)
(2.356715 0.93627399 -0.63964701)
(2.506124 0.6776998 -0.7481156)
(2.3591759 0.93577862 -0.63983262)
(2.5086119 0.67782408 -0.74794871)
(2.361717 0.935265 -0.6400246)
(2.511184 0.67795378 -0.7477752)
(2.3641729 0.93476641 -0.64021081)
(2.5137069 0.67808241 -0.74760419)
(2.3666351 0.93426442 -0.64039803)
(2.5162261 0.67821211 -0.74743259)
(2.369122 0.93375528 -0.64058739)
(2.5187409 0.67834288 -0.74726027)
(2.3716331 0.93323898 -0.64077932)
(2.521333 0.67847908 -0.74708188)
(2.3740771 0.93273431 -0.64096659)
(2.376519 0.93222809 -0.64115411)
(2.5238249 0.6786114 -0.7469095)
(2.379034 0.93170422 -0.64134789)
(2.526334 0.67874599 -0.74673498)
(2.3815191 0.93118447 -0.64153981)
(2.528878 0.67888403 -0.74655712)
(2.383991 0.93066537 -0.6417312)
(2.5314291 0.67902368 -0.74637783)
(2.386445 0.93014783 -0.64192182)
(2.533926 0.67916191 -0.74620152)
(2.3889821 0.92961007 -0.64211941)
(2.536411 0.6793009 -0.74602503)
(2.3914349 0.92908818 -0.64231098)
(2.5389781 0.6794461 -0.74584168)
(2.393894 0.92856282 -0.6425035)
(2.396373 0.92803073 -0.64269823)
(2.541502 0.67959023 -0.74566072)
(2.398881 0.92749017 -0.6428957)
(2.5440171 0.67973548 -0.74547923)
(2.4013181 0.92696261 -0.6430881)
(2.5465291 0.67988211 -0.74529707)
(2.4037549 0.92643273 -0.64328122)
(2.5491221 0.680035 -0.74510813)
(2.4062631 0.92588508 -0.6434803)
(2.551615 0.68018371 -0.74492538)
(2.4087441 0.92534089 -0.64367789)
(2.4112079 0.92479819 -0.6438747)
(2.5541241 0.68033493 -0.74474061)
(2.4136541 0.92425692 -0.64407068)
(2.556664 0.6804896 -0.74455237)
(2.416188 0.92369378 -0.64427429)
(2.559216 0.68064678 -0.74436241)
(2.418637 0.92314708 -0.6444717)
(2.5617099 0.68080199 -0.74417579)
(2.4210911 0.92259681 -0.64467001)
(2.5641911 0.68095809 -0.74398911)
(2.423563 0.9220401 -0.6448704)
(2.5667541 0.68112111 -0.7437951)
(2.4260659 0.92147392 -0.64507401)
(2.4284949 0.9209218 -0.64527208)
(2.569278 0.6812833 -0.74360323)
(2.430928 0.92036653 -0.64547122)
(2.57179 0.68144649 -0.74341112)
(2.4334271 0.91979349 -0.64567631)
(2.574296 0.68161118 -0.74321842)
(2.4359031 0.91922301 -0.64588022)
(2.57689 0.68178338 -0.74301791)
(2.4383581 0.9186548 -0.646083)
(2.5793829 0.68195081 -0.74282408)
(2.4407959 0.91808808 -0.646285)
(2.581893 0.6821211 -0.74262798)
(2.443325 0.91749758 -0.64649522)
(2.4457691 0.9169243 -0.64669901)
(2.584429 0.6822952 -0.74242872)
(2.4482181 0.91634732 -0.64690381)
(2.586982 0.68247223 -0.74222708)
(2.4506819 0.91576397 -0.64711058)
(2.5894711 0.68264681 -0.74202931)
(2.4531801 0.91517001 -0.64732093)
(2.5919521 0.68282253 -0.7418313)
(2.4556 0.91459173 -0.64752531)
(2.4580269 0.91400898 -0.64773113)
(2.594511 0.68300593 -0.74162579)
(2.460516 0.9134087 -0.64794278)
(2.596997 0.68318588 -0.7414251)
(2.4629879 0.91280991 -0.64815372)
(2.598372 0.68550938 -0.74057811)
(2.597224 0.68772137 -0.73990732)
(2.5960939 0.68989879 -0.73924267)
(2.59497 0.6920647 -0.73857743)
(2.4654329 0.91221452 -0.64836311)
(2.5938489 0.69422519 -0.73790962)
(2.59269 0.69645971 -0.73721462)
(2.5915749 0.69860762 -0.73654222)
(2.5904529 0.70076919 -0.73586142)
(2.4678609 0.91162062 -0.64857179)
(2.5893199 0.70295233 -0.73516947)
(2.588181 0.70514899 -0.734469)
(2.587069 0.70729017 -0.73378199)
(2.585963 0.70942312 -0.7330935)
(2.584821 0.71162271 -0.7323792)
(2.5836959 0.71379077 -0.7316708)
(2.5825789 0.71594459 -0.73096281)
(2.4703851 0.91100031 -0.64878941)
(2.5814641 0.71809262 -0.73025262)
(2.5803111 0.72031379 -0.72951359)
(2.579201 0.72245282 -0.72879791)
(2.578084 0.72460532 -0.7280733)
(2.5769579 0.72677541 -0.72733849)
(2.5758231 0.72896308 -0.72659338)
(2.574719 0.7310918 -0.72586411)
(2.4728241 0.91039819 -0.64900041)
(2.573617 0.73321527 -0.72513241)
(2.5724821 0.73540193 -0.72437471)
(2.571362 0.73755991 -0.7236225)
(2.570251 0.73970091 -0.72287202)
(2.5691431 0.74183571 -0.72211951)
(2.5679979 0.74404299 -0.7213369)
(2.5668931 0.74617219 -0.72057772)
(2.4752669 0.90979242 -0.6492123)
(2.5657811 0.74831492 -0.71980929)
(2.564662 0.75047147 -0.71903169)
(2.5635321 0.75264919 -0.71824211)
(2.5624349 0.7547648 -0.71747071)
(2.5613379 0.7568782 -0.7166959)
(2.56021 0.75905102 -0.71589488)
(2.5590961 0.76119822 -0.71509898)
(2.557992 0.76332581 -0.714306)
(2.5568919 0.7654466 -0.71351129)
(2.477721 0.9091804 -0.64942628)
(2.5557539 0.76763922 -0.71268529)
(2.5546551 0.76975793 -0.71188259)
(2.5535481 0.7718901 -0.7110706)
(2.5524371 0.77403241 -0.71025038)
(2.551312 0.77619952 -0.70941609)
(2.5502219 0.77830118 -0.70860279)
(2.5491309 0.78040379 -0.70778489)
(2.5480111 0.78256202 -0.70694083)
(2.480212 0.90855581 -0.64964449)
(2.5469019 0.78469771 -0.70610118)
(2.5458059 0.78681111 -0.705266)
(2.544713 0.7889173 -0.70442933)
(2.5435829 0.79109442 -0.70355988)
(2.54249 0.79320198 -0.70271391)
(2.541389 0.7953229 -0.70185822)
(2.5402851 0.79745018 -0.7009955)
(2.5391669 0.79960591 -0.70011669)
(2.538084 0.80169308 -0.69926149)
(2.536999 0.80378401 -0.6984005)
(2.535887 0.80592698 -0.69751358)
(2.534785 0.80805027 -0.6966303)
(2.5336959 0.81014889 -0.69575298)
(2.5326109 0.81223971 -0.69487453)
(2.5314901 0.81440079 -0.69396198)
(2.5304029 0.81649637 -0.69307268)
(2.5293081 0.81860512 -0.6921733)
(2.5282121 0.82071668 -0.69126832)
(2.5271001 0.8228603 -0.69034499)
(2.5260251 0.82493222 -0.68944812)
(2.5249469 0.82701069 -0.68854409)
(2.4837251 0.90586728 -0.65093893)
(2.4848261 0.90378273 -0.65201843)
(2.5238431 0.8291378 -0.68761438)
(2.4858911 0.90176749 -0.6530574)
(2.521667 0.83333099 -0.68576819)
(2.522748 0.83124799 -0.68668753)
(2.520591 0.83540583 -0.68484813)
(2.4869609 0.8997429 -0.65409672)
(2.5194781 0.83754992 -0.68389273)
(2.5183971 0.83963281 -0.68295997)
(2.4880481 0.89768368 -0.65514922)
(2.4891391 0.89561528 -0.65620178)
(2.5173099 0.84172881 -0.68201703)
(2.4902091 0.89358377 -0.65723109)
(2.5162239 0.84382337 -0.68107003)
(2.4912729 0.89156371 -0.65824997)
(2.492378 0.88946491 -0.65930408)
(2.5151191 0.8459537 -0.68010241)
(2.493458 0.88741159 -0.66033071)
(2.4956169 0.88330472 -0.66237038)
(2.496722 0.88120067 -0.66340828)
(2.494539 0.88535529 -0.66135418)
(2.5140519 0.84800911 -0.67916429)
(2.4977911 0.8791641 -0.6644085)
(2.512979 0.85007429 -0.67821741)
(2.5118821 0.8521834 -0.67724591)
(2.510792 0.85427958 -0.67627567)
(2.50646 0.86259311 -0.67238319)
(2.5075381 0.86052549 -0.67335802)
(2.508646 0.8583988 -0.6743561)
(2.509717 0.85634363 -0.67531598)
(2.5010481 0.87294602 -0.66743499)
(2.50212 0.87089688 -0.6684233)
(2.499954 0.87503552 -0.66642249)
(2.503186 0.86885989 -0.66940141)
(2.4988639 0.87711751 -0.66540909)
(2.5053749 0.86466992 -0.67139959)
(2.504292 0.86674458 -0.67041248)
(2.656776 0.69033772 0.73551917)
(2.659976 0.68838382 0.73597932)
(2.6556411 0.69255358 0.73484093)
(2.6620779 0.68857688 0.7357859)
(2.6545229 0.69473481 0.73416901)
(2.6641121 0.68876457 0.73559821)
(2.653409 0.69690621 0.73349589)
(2.6522999 0.69906771 0.7328217)
(2.6666939 0.68900442 0.73535901)
(2.6511509 0.70130533 0.73211938)
(2.6500461 0.70345569 0.73144019)
(2.669276 0.6892454 0.73511881)
(2.6489329 0.70561957 0.73075259)
(2.647809 0.7078048 0.73005402)
(2.671771 0.68947929 0.73488587)
(2.646677 0.71000332 0.72934681)
(2.674273 0.68971491 0.73465163)
(2.6455729 0.71214592 0.72865337)
(2.6444731 0.71428001 0.72795862)
(2.6767919 0.68995303 0.73441482)
(2.643338 0.71648061 0.72723788)
(2.6422181 0.71864921 0.7265234)
(2.6793439 0.69019502 0.73417419)
(2.6411049 0.7208032 0.72580951)
(2.6818211 0.6904307 0.73394001)
(2.6399951 0.72295111 0.72509348)
(2.638845 0.72517198 0.72434872)
(2.6843021 0.69066751 0.73370463)
(2.637738 0.72731018 0.72362739)
(2.6366229 0.72946173 0.72289741)