/*--------------------------------*- C++ -*----------------------------------*\
| =========                 |                                                 |
| \\      /  F ield         | OpenFOAM: The Open Source CFD Toolbox           |
|  \\    /   O peration     | Version:  v2406                                 |
|   \\  /    A nd           | Website:  www.openfoam.com                      |
|    \\/     M anipulation  |                                                 |
\*---------------------------------------------------------------------------*/
FoamFile
{
    version     2.0;
    format      ascii;
    class       dictionary;
    location    "../constant/controlPoints";
    object      boxcpsBsplines0;
}
// * * * * * * * * * * * * * * * * * * * * * * * * * * * * * * * * * * * * * //

controlPoints   192 ( ( 1.4065 0.520649 -0.05 ) 
( 1.794643 0.520649 -0.05 ) 
( 2.182786 0.520649 -0.05 ) 
( 2.570929 0.520649 -0.05 ) 
( 2.959071 0.520649 -0.05 ) 
( 3.347214 0.520649 -0.05 ) 
( 3.735357 0.520649 -0.05 ) 
( 4.1235 0.520649 -0.05 ) 
( 1.4065 0.757883 -0.05 ) 
( 1.794643 0.757883 -0.05 ) 
( 2.182786 0.757883 -0.05 ) 
( 2.570929 0.757883 -0.05 ) 
( 2.959071 0.757883 -0.05 ) 
( 3.347214 0.757883 -0.05 ) 
( 3.735357 0.757883 -0.05 ) 
( 4.1235 0.757883 -0.05 ) 
( 1.4065 0.995116 -0.05 ) 
( 1.794643 0.995116 -0.05 ) 
( 2.182786 0.995116 -0.05 ) 
( 2.570929 0.995116 -0.05 ) 
( 2.959071 0.995116 -0.05 ) 
( 3.347214 0.995116 -0.05 ) 
( 3.735357 0.995116 -0.05 ) 
( 4.1235 0.995116 -0.05 ) 
( 1.4065 1.23235 -0.05 ) 
( 1.794643 1.23235 -0.05 ) 
( 2.182786 1.23235 -0.05 ) 
( 2.570929 1.23235 -0.05 ) 
( 2.959071 1.23235 -0.05 ) 
( 3.347214 1.23235 -0.05 ) 
( 3.735357 1.23235 -0.05 ) 
( 4.1235 1.23235 -0.05 ) 
( 1.4065 0.520649 0.17 ) 
( 1.794643 0.520649 0.17 ) 
( 2.182786 0.520649 0.17 ) 
( 2.570929 0.520649 0.17 ) 
( 2.959071 0.520649 0.17 ) 
( 3.347214 0.520649 0.17 ) 
( 3.735357 0.520649 0.17 ) 
( 4.1235 0.520649 0.17 ) 
( 1.4065 0.757883 0.17 ) 
( 1.794643 0.757883 0.17 ) 
( 2.182786 0.757883 0.17 ) 
( 2.570929 0.757883 0.17 ) 
( 2.959071 0.757883 0.17 ) 
( 3.347214 0.757883 0.17 ) 
( 3.735357 0.757883 0.17 ) 
( 4.1235 0.757883 0.17 ) 
( 1.4065 0.995116 0.17 ) 
( 1.794643 0.995116 0.17 ) 
( 2.182786 0.995116 0.17 ) 
( 2.570929 0.995116 0.17 ) 
( 2.959071 0.995116 0.17 ) 
( 3.347214 0.995116 0.17 ) 
( 3.735357 0.995116 0.17 ) 
( 4.1235 0.995116 0.17 ) 
( 1.4065 1.23235 0.17 ) 
( 1.794643 1.23235 0.17 ) 
( 2.182786 1.23235 0.17 ) 
( 2.570929 1.23235 0.17 ) 
( 2.959071 1.23235 0.17 ) 
( 3.347214 1.23235 0.17 ) 
( 3.735357 1.23235 0.17 ) 
( 4.1235 1.23235 0.17 ) 
( 1.4065 0.520649 0.39 ) 
( 1.794643 0.520649 0.39 ) 
( 2.182786 0.520649 0.39 ) 
( 2.570929 0.520649 0.39 ) 
( 2.959071 0.520649 0.39 ) 
( 3.347214 0.520649 0.39 ) 
( 3.735357 0.520649 0.39 ) 
( 4.1235 0.520649 0.39 ) 
( 1.4065 0.757883 0.39 ) 
( 1.794643 0.757883 0.39 ) 
( 2.182786 0.757883 0.39 ) 
( 2.570929 0.757883 0.39 ) 
( 2.959071 0.757883 0.39 ) 
( 3.347214 0.757883 0.39 ) 
( 3.735357 0.757883 0.39 ) 
( 4.1235 0.757883 0.39 ) 
( 1.4065 0.995116 0.39 ) 
( 1.794643 0.995116 0.39 ) 
( 2.182786 0.995116 0.39 ) 
( 2.570929 0.995116 0.39 ) 
( 2.959071 0.995116 0.39 ) 
( 3.347214 0.995116 0.39 ) 
( 3.735357 0.995116 0.39 ) 
( 4.1235 0.995116 0.39 ) 
( 1.4065 1.23235 0.39 ) 
( 1.794643 1.23235 0.39 ) 
( 2.182786 1.23235 0.39 ) 
( 2.570929 1.23235 0.39 ) 
( 2.959071 1.23235 0.39 ) 
( 3.347214 1.23235 0.39 ) 
( 3.735357 1.23235 0.39 ) 
( 4.1235 1.23235 0.39 ) 
( 1.4065 0.520649 0.61 ) 
( 1.794643 0.520649 0.61 ) 
( 2.182786 0.520649 0.61 ) 
( 2.570929 0.520649 0.61 ) 
( 2.959071 0.520649 0.61 ) 
( 3.347214 0.520649 0.61 ) 
( 3.735357 0.520649 0.61 ) 
( 4.1235 0.520649 0.61 ) 
( 1.4065 0.757883 0.61 ) 
( 1.794643 0.757883 0.61 ) 
( 2.182786 0.757883 0.61 ) 
( 2.570929 0.757883 0.61 ) 
( 2.959071 0.757883 0.61 ) 
( 3.347214 0.757883 0.61 ) 
( 3.735357 0.757883 0.61 ) 
( 4.1235 0.757883 0.61 ) 
( 1.4065 0.995116 0.61 ) 
( 1.794643 0.995116 0.61 ) 
( 2.182786 0.995116 0.61 ) 
( 2.570929 0.995116 0.61 ) 
( 2.959071 0.995116 0.61 ) 
( 3.347214 0.995116 0.61 ) 
( 3.735357 0.995116 0.61 ) 
( 4.1235 0.995116 0.61 ) 
( 1.4065 1.23235 0.61 ) 
( 1.794643 1.23235 0.61 ) 
( 2.182786 1.23235 0.61 ) 
( 2.570929 1.23235 0.61 ) 
( 2.959071 1.23235 0.61 ) 
( 3.347214 1.23235 0.61 ) 
( 3.735357 1.23235 0.61 ) 
( 4.1235 1.23235 0.61 ) 
( 1.4065 0.520649 0.83 ) 
( 1.794643 0.520649 0.83 ) 
( 2.182786 0.520649 0.83 ) 
( 2.570929 0.520649 0.83 ) 
( 2.959071 0.520649 0.83 ) 
( 3.347214 0.520649 0.83 ) 
( 3.735357 0.520649 0.83 ) 
( 4.1235 0.520649 0.83 ) 
( 1.4065 0.757883 0.83 ) 
( 1.794643 0.757883 0.83 ) 
( 2.182786 0.757883 0.83 ) 
( 2.570929 0.757883 0.83 ) 
( 2.959071 0.757883 0.83 ) 
( 3.347214 0.757883 0.83 ) 
( 3.735357 0.757883 0.83 ) 
( 4.1235 0.757883 0.83 ) 
( 1.4065 0.995116 0.83 ) 
( 1.794643 0.995116 0.83 ) 
( 2.182786 0.995116 0.83 ) 
( 2.570929 0.995116 0.83 ) 
( 2.959071 0.995116 0.83 ) 
( 3.347214 0.995116 0.83 ) 
( 3.735357 0.995116 0.83 ) 
( 4.1235 0.995116 0.83 ) 
( 1.4065 1.23235 0.83 ) 
( 1.794643 1.23235 0.83 ) 
( 2.182786 1.23235 0.83 ) 
( 2.570929 1.23235 0.83 ) 
( 2.959071 1.23235 0.83 ) 
( 3.347214 1.23235 0.83 ) 
( 3.735357 1.23235 0.83 ) 
( 4.1235 1.23235 0.83 ) 
( 1.4065 0.520649 1.05 ) 
( 1.794643 0.520649 1.05 ) 
( 2.182786 0.520649 1.05 ) 
( 2.570929 0.520649 1.05 ) 
( 2.959071 0.520649 1.05 ) 
( 3.347214 0.520649 1.05 ) 
( 3.735357 0.520649 1.05 ) 
( 4.1235 0.520649 1.05 ) 
( 1.4065 0.757883 1.05 ) 
( 1.794643 0.757883 1.05 ) 
( 2.182786 0.757883 1.05 ) 
( 2.570929 0.757883 1.05 ) 
( 2.959071 0.757883 1.05 ) 
( 3.347214 0.757883 1.05 ) 
( 3.735357 0.757883 1.05 ) 
( 4.1235 0.757883 1.05 ) 
( 1.4065 0.995116 1.05 ) 
( 1.794643 0.995116 1.05 ) 
( 2.182786 0.995116 1.05 ) 
( 2.570929 0.995116 1.05 ) 
( 2.959071 0.995116 1.05 ) 
( 3.347214 0.995116 1.05 ) 
( 3.735357 0.995116 1.05 ) 
( 4.1235 0.995116 1.05 ) 
( 1.4065 1.23235 1.05 ) 
( 1.794643 1.23235 1.05 ) 
( 2.182786 1.23235 1.05 ) 
( 2.570929 1.23235 1.05 ) 
( 2.959071 1.23235 1.05 ) 
( 3.347214 1.23235 1.05 ) 
( 3.735357 1.23235 1.05 ) 
( 4.1235 1.23235 1.05 ) );


// ************************************************************************* //
