/*--------------------------------*- C++ -*----------------------------------*\
| =========                 |                                                 |
| \\      /  F ield         | OpenFOAM: The Open Source CFD Toolbox           |
|  \\    /   O peration     | Version:  2406                                  |
|   \\  /    A nd           | Website:  www.openfoam.com                      |
|    \\/     M anipulation  |                                                 |
\*---------------------------------------------------------------------------*/
FoamFile
{
    version     2.0;
    format      binary;
    arch        "LSB;label=32;scalar=64";
    class       polyBoundaryMesh;
    location    "constant/polyMesh";
    object      boundary;
}
// * * * * * * * * * * * * * * * * * * * * * * * * * * * * * * * * * * * * * //

8
(
    inlet
    {
        type            inlet;
        nFaces          874;
        startFace       4583290;
        faces           ( ( 0 3 7 4 ) );
    }
    outlet
    {
        type            outlet;
        nFaces          1165;
        startFace       4584164;
        faces           ( ( 1 5 6 2 ) );
    }
    lowerWall
    {
        type            wall;
        inGroups        1(wall);
        nFaces          36104;
        startFace       4585329;
    }
    upperWall
    {
        type            wall;
        inGroups        1(wall);
        nFaces          200;
        startFace       4621433;
    }
    symmetry
    {
        type            symmetry;
        inGroups        1(symmetry);
        nFaces          33714;
        startFace       4621633;
    }
    sideWall
    {
        type            wall;
        inGroups        1(wall);
        nFaces          761;
        startFace       4655347;
    }
    body
    {
        type            wall;
        inGroups        1(wall);
        nFaces          59243;
        startFace       4656108;
    }
    optSurface
    {
        type            wall;
        inGroups        1(wall);
        nFaces          20128;
        startFace       4715351;
    }
)

// ************************************************************************* //
