/*--------------------------------*- C++ -*----------------------------------*\
  =========                 |
  \\      /  F ield         | OpenFOAM: The Open Source CFD Toolbox
   \\    /   O peration     | Website:  https://www.openfoam.com
    \\  /    A nd           | Version:  v1812
     \\/     M anipulation  |
\*---------------------------------------------------------------------------*/
FoamFile
{
    version     2.0;
    format      ascii;
    class       dictionary;
    object      blockMeshDict;
}
// * * * * * * * * * * * * * * * * * * * * * * * * * * * * * * * * * * * * * //

convertToMeters 1;

vertices
(
    (-10  -0.29  0)    // 0
    (30 -0.29  0)    // 1
    (30 6  0)    // 2
    (-10  6  0)    // 3

    (-10  -0.29  5)    // 4
    (30 -0.29  5)    // 5
    (30 6  5)    // 6
    (-10  6  5)    // 7
);

blocks
(
    hex (0 1 2 3 4 5 6 7)
    (40 8 5)
    simpleGrading (1 1 1)
);

edges
(
);

defaultPatch
{
    name background;
    type internal;
}

boundary
(
    xMin
    {
        type inlet;
        faces
        (
            (0 3 7 4)
        );
    }

    xMax
    {
        type outlet;
        faces
        (
            (1 5 6 2)
        );
    }

    yMin
    {
        type wall;
        faces
        (
            (0 4 5 1)
        );
    }
    
    yMax
    {
	type symmetry;
	faces
	(	
        	(3 2 6 7)

	);
    }

    zMin
    {
        type symmetry;
        faces
        (
                (0 1 2 3)
        );
    }

    zMax
    {
        type symmetry;
        faces
        (
                (4 7 6 5)
        );
    }
);

mergePatchPairs
(
);

// ************************************************************************* //
