/*--------------------------------*- C++ -*----------------------------------*\
| =========                 |                                                 |
| \\      /  F ield         | OpenFOAM: The Open Source CFD Toolbox           |
|  \\    /   O peration     | Version:  v2406                                 |
|   \\  /    A nd           | Website:  www.openfoam.com                      |
|    \\/     M anipulation  |                                                 |
\*---------------------------------------------------------------------------*/
FoamFile
{
    version     2.0;
    format      ascii;
    class       dictionary;
    object      dynamicMeshDict;
}
// * * * * * * * * * * * * * * * * * * * * * * * * * * * * * * * * * * * * * //

solver volumetricBSplinesMotionSolver;

volumetricBSplinesMotionSolverCoeffs
{
    box
    {
        type    cartesian;
        nCPsU   8;
        nCPsV   6;
        nCPsW   8;
        degreeU 3;
        degreeV 3;
        degreeW 3;

        controlPointsDefinition fromFile;

        confineUMovement true;
        confineVMovement false;
        confineWMovement true;
        confineBoundaryControlPoints false;

        confineUMinCPs ( (true true true) (true true true));
        confineUMaxCPs ( );
        confineVMinCPs ( (true true true) );
        confineVMaxCPs ( );
        confineWMinCPs ( );
        confineWMaxCPs (  );
    }
}


// ************************************************************************* //
