/*--------------------------------*- C++ -*----------------------------------*\
  =========                 |
  \\      /  F ield         | OpenFOAM: The Open Source CFD Toolbox
   \\    /   O peration     | Website:  https://openfoam.org
    \\  /    A nd           | Version:  10
     \\/     M anipulation  |
\*---------------------------------------------------------------------------*/
FoamFile
{
    version 	2.0;
    format      ascii;
    class       dictionary;
    object      controlDict;
}
// * * * * * * * * * * * * * * * * * * * * * * * * * * * * * * * * * * * * * //

//application     simpleFoam;

startFrom       startTime;

startTime       0;

stopAt          endTime;

endTime         5000;

deltaT          1;

writeControl    timeStep;

writeInterval   500;

purgeWrite      0;

writeFormat     ascii;

writePrecision   8;

writeCompression off;

timeFormat      general;

timePrecision   6;

runTimeModifiable true;

// adjustTimeStep  yes;

// maxCo           1;

functions
{
	#includeFunc	residuals;
	
    	yPlus
    	{
        type            yPlus;
        libs            ("libfieldFunctionObjects.so");
        
        writeControl    writeTime;  // Calculate when writing
        // OR
        // writeControl    timeStep;
        // writeInterval   100;      // Calculate every 100 iterations
    	}
    
    	wallShearStress
    	{
        type            wallShearStress;
        libs            ("libfieldFunctionObjects.so");
        patches         ("body.*" "wheel.*" "optSurface");  // Your wall patches
        
        writeControl    writeTime;
    	}
    	
    	forceCoeffs
	{
	    type        forceCoeffs;
	    libs        ("libforces.so");
	    patches	(body optSurface wheelFL wheelRL);
	    
            writeControl timeStep;
            writeInterval 1;
	    
	    CofR	(5.742 0.144 0.935);
    	    liftDir     (0 1 0);
	    dragDir     (1 0 0);
	    pitchAxis   (0 0 1);
	    
	    magUInf	40;
	    lRef	1;
	    Aref	1.15;
	    rho		rhoInf;
	    rhoInf	1;
	}
	
}

// ************************************************************************* //
