/*--------------------------------*- C++ -*----------------------------------*\
| =========                 |                                                 |
| \\      /  F ield         | OpenFOAM: The Open Source CFD Toolbox           |
|  \\    /   O peration     | Version:  v2406                                 |
|   \\  /    A nd           | Website:  www.openfoam.com                      |
|    \\/     M anipulation  |                                                 |
\*---------------------------------------------------------------------------*/
FoamFile
{
    version     2.0;
    format      ascii;
    class       dictionary;
    location    "../constant/controlPoints";
    object      boxcpsBsplines0;
}
// * * * * * * * * * * * * * * * * * * * * * * * * * * * * * * * * * * * * * //

controlPoints   384 ( ( 1.420219 0.525654 -0.042944 ) 
( 1.765246 0.525654 -0.042944 ) 
( 2.110274 0.525654 -0.042944 ) 
( 2.455301 0.525654 -0.042944 ) 
( 2.800329 0.525654 -0.042944 ) 
( 3.145356 0.525654 -0.042944 ) 
( 3.490384 0.525654 -0.042944 ) 
( 3.835412 0.525654 -0.042944 ) 
( 1.420219 0.645972 -0.042944 ) 
( 1.765246 0.645972 -0.042944 ) 
( 2.110274 0.645972 -0.042944 ) 
( 2.455301 0.645972 -0.042944 ) 
( 2.800329 0.645972 -0.042944 ) 
( 3.145356 0.645972 -0.042944 ) 
( 3.490384 0.645972 -0.042944 ) 
( 3.835412 0.645972 -0.042944 ) 
( 1.420219 0.76629 -0.042944 ) 
( 1.765246 0.76629 -0.042944 ) 
( 2.110274 0.76629 -0.042944 ) 
( 2.455301 0.76629 -0.042944 ) 
( 2.800329 0.76629 -0.042944 ) 
( 3.145356 0.76629 -0.042944 ) 
( 3.490384 0.76629 -0.042944 ) 
( 3.835412 0.76629 -0.042944 ) 
( 1.420219 0.886609 -0.042944 ) 
( 1.765246 0.886609 -0.042944 ) 
( 2.110274 0.886609 -0.042944 ) 
( 2.455301 0.886609 -0.042944 ) 
( 2.800329 0.886609 -0.042944 ) 
( 3.145356 0.886609 -0.042944 ) 
( 3.490384 0.886609 -0.042944 ) 
( 3.835412 0.886609 -0.042944 ) 
( 1.420219 1.006927 -0.042944 ) 
( 1.765246 1.006927 -0.042944 ) 
( 2.110274 1.006927 -0.042944 ) 
( 2.455301 1.006927 -0.042944 ) 
( 2.800329 1.006927 -0.042944 ) 
( 3.145356 1.006927 -0.042944 ) 
( 3.490384 1.006927 -0.042944 ) 
( 3.835412 1.006927 -0.042944 ) 
( 1.420219 1.127245 -0.042944 ) 
( 1.765246 1.127245 -0.042944 ) 
( 2.110274 1.127245 -0.042944 ) 
( 2.455301 1.127245 -0.042944 ) 
( 2.800329 1.127245 -0.042944 ) 
( 3.145356 1.127245 -0.042944 ) 
( 3.490384 1.127245 -0.042944 ) 
( 3.835412 1.127245 -0.042944 ) 
( 1.420219 0.525654 0.092022 ) 
( 1.765246 0.525654 0.092022 ) 
( 2.110274 0.525654 0.092022 ) 
( 2.455301 0.525654 0.092022 ) 
( 2.800329 0.525654 0.092022 ) 
( 3.145356 0.525654 0.092022 ) 
( 3.490384 0.525654 0.092022 ) 
( 3.835412 0.525654 0.092022 ) 
( 1.420219 0.645972 0.092022 ) 
( 1.765246 0.645972 0.092022 ) 
( 2.110274 0.645972 0.092022 ) 
( 2.455301 0.645972 0.092022 ) 
( 2.800329 0.645972 0.092022 ) 
( 3.145356 0.645972 0.092022 ) 
( 3.490384 0.645972 0.092022 ) 
( 3.835412 0.645972 0.092022 ) 
( 1.420219 0.76629 0.092022 ) 
( 1.765246 0.76629 0.092022 ) 
( 2.110274 0.76629 0.092022 ) 
( 2.455301 0.76629 0.092022 ) 
( 2.800329 0.76629 0.092022 ) 
( 3.145356 0.76629 0.092022 ) 
( 3.490384 0.76629 0.092022 ) 
( 3.835412 0.76629 0.092022 ) 
( 1.420219 0.886609 0.092022 ) 
( 1.765246 0.886609 0.092022 ) 
( 2.110274 0.886609 0.092022 ) 
( 2.455301 0.886609 0.092022 ) 
( 2.800329 0.886609 0.092022 ) 
( 3.145356 0.886609 0.092022 ) 
( 3.490384 0.886609 0.092022 ) 
( 3.835412 0.886609 0.092022 ) 
( 1.420219 1.006927 0.092022 ) 
( 1.765246 1.006927 0.092022 ) 
( 2.110274 1.006927 0.092022 ) 
( 2.455301 1.006927 0.092022 ) 
( 2.800329 1.006927 0.092022 ) 
( 3.145356 1.006927 0.092022 ) 
( 3.490384 1.006927 0.092022 ) 
( 3.835412 1.006927 0.092022 ) 
( 1.420219 1.127245 0.092022 ) 
( 1.765246 1.127245 0.092022 ) 
( 2.110274 1.127245 0.092022 ) 
( 2.455301 1.127245 0.092022 ) 
( 2.800329 1.127245 0.092022 ) 
( 3.145356 1.127245 0.092022 ) 
( 3.490384 1.127245 0.092022 ) 
( 3.835412 1.127245 0.092022 ) 
( 1.420219 0.525654 0.226988 ) 
( 1.765246 0.525654 0.226988 ) 
( 2.110274 0.525654 0.226988 ) 
( 2.455301 0.525654 0.226988 ) 
( 2.800329 0.525654 0.226988 ) 
( 3.145356 0.525654 0.226988 ) 
( 3.490384 0.525654 0.226988 ) 
( 3.835412 0.525654 0.226988 ) 
( 1.420219 0.645972 0.226988 ) 
( 1.765246 0.645972 0.226988 ) 
( 2.110274 0.645972 0.226988 ) 
( 2.455301 0.645972 0.226988 ) 
( 2.800329 0.645972 0.226988 ) 
( 3.145356 0.645972 0.226988 ) 
( 3.490384 0.645972 0.226988 ) 
( 3.835412 0.645972 0.226988 ) 
( 1.420219 0.76629 0.226988 ) 
( 1.765246 0.76629 0.226988 ) 
( 2.110274 0.76629 0.226988 ) 
( 2.455301 0.76629 0.226988 ) 
( 2.800329 0.76629 0.226988 ) 
( 3.145356 0.76629 0.226988 ) 
( 3.490384 0.76629 0.226988 ) 
( 3.835412 0.76629 0.226988 ) 
( 1.420219 0.886609 0.226988 ) 
( 1.765246 0.886609 0.226988 ) 
( 2.110274 0.886609 0.226988 ) 
( 2.455301 0.886609 0.226988 ) 
( 2.800329 0.886609 0.226988 ) 
( 3.145356 0.886609 0.226988 ) 
( 3.490384 0.886609 0.226988 ) 
( 3.835412 0.886609 0.226988 ) 
( 1.420219 1.006927 0.226988 ) 
( 1.765246 1.006927 0.226988 ) 
( 2.110274 1.006927 0.226988 ) 
( 2.455301 1.006927 0.226988 ) 
( 2.800329 1.006927 0.226988 ) 
( 3.145356 1.006927 0.226988 ) 
( 3.490384 1.006927 0.226988 ) 
( 3.835412 1.006927 0.226988 ) 
( 1.420219 1.127245 0.226988 ) 
( 1.765246 1.127245 0.226988 ) 
( 2.110274 1.127245 0.226988 ) 
( 2.455301 1.127245 0.226988 ) 
( 2.800329 1.127245 0.226988 ) 
( 3.145356 1.127245 0.226988 ) 
( 3.490384 1.127245 0.226988 ) 
( 3.835412 1.127245 0.226988 ) 
( 1.420219 0.525654 0.361954 ) 
( 1.765246 0.525654 0.361954 ) 
( 2.110274 0.525654 0.361954 ) 
( 2.455301 0.525654 0.361954 ) 
( 2.800329 0.525654 0.361954 ) 
( 3.145356 0.525654 0.361954 ) 
( 3.490384 0.525654 0.361954 ) 
( 3.835412 0.525654 0.361954 ) 
( 1.420219 0.645972 0.361954 ) 
( 1.765246 0.645972 0.361954 ) 
( 2.110274 0.645972 0.361954 ) 
( 2.455301 0.645972 0.361954 ) 
( 2.800329 0.645972 0.361954 ) 
( 3.145356 0.645972 0.361954 ) 
( 3.490384 0.645972 0.361954 ) 
( 3.835412 0.645972 0.361954 ) 
( 1.420219 0.76629 0.361954 ) 
( 1.765246 0.76629 0.361954 ) 
( 2.110274 0.76629 0.361954 ) 
( 2.455301 0.76629 0.361954 ) 
( 2.800329 0.76629 0.361954 ) 
( 3.145356 0.76629 0.361954 ) 
( 3.490384 0.76629 0.361954 ) 
( 3.835412 0.76629 0.361954 ) 
( 1.420219 0.886609 0.361954 ) 
( 1.765246 0.886609 0.361954 ) 
( 2.110274 0.886609 0.361954 ) 
( 2.455301 0.886609 0.361954 ) 
( 2.800329 0.886609 0.361954 ) 
( 3.145356 0.886609 0.361954 ) 
( 3.490384 0.886609 0.361954 ) 
( 3.835412 0.886609 0.361954 ) 
( 1.420219 1.006927 0.361954 ) 
( 1.765246 1.006927 0.361954 ) 
( 2.110274 1.006927 0.361954 ) 
( 2.455301 1.006927 0.361954 ) 
( 2.800329 1.006927 0.361954 ) 
( 3.145356 1.006927 0.361954 ) 
( 3.490384 1.006927 0.361954 ) 
( 3.835412 1.006927 0.361954 ) 
( 1.420219 1.127245 0.361954 ) 
( 1.765246 1.127245 0.361954 ) 
( 2.110274 1.127245 0.361954 ) 
( 2.455301 1.127245 0.361954 ) 
( 2.800329 1.127245 0.361954 ) 
( 3.145356 1.127245 0.361954 ) 
( 3.490384 1.127245 0.361954 ) 
( 3.835412 1.127245 0.361954 ) 
( 1.420219 0.525654 0.496919 ) 
( 1.765246 0.525654 0.496919 ) 
( 2.110274 0.525654 0.496919 ) 
( 2.455301 0.525654 0.496919 ) 
( 2.800329 0.525654 0.496919 ) 
( 3.145356 0.525654 0.496919 ) 
( 3.490384 0.525654 0.496919 ) 
( 3.835412 0.525654 0.496919 ) 
( 1.420219 0.645972 0.496919 ) 
( 1.765246 0.645972 0.496919 ) 
( 2.110274 0.645972 0.496919 ) 
( 2.455301 0.645972 0.496919 ) 
( 2.800329 0.645972 0.496919 ) 
( 3.145356 0.645972 0.496919 ) 
( 3.490384 0.645972 0.496919 ) 
( 3.835412 0.645972 0.496919 ) 
( 1.420219 0.76629 0.496919 ) 
( 1.765246 0.76629 0.496919 ) 
( 2.110274 0.76629 0.496919 ) 
( 2.455301 0.76629 0.496919 ) 
( 2.800329 0.76629 0.496919 ) 
( 3.145356 0.76629 0.496919 ) 
( 3.490384 0.76629 0.496919 ) 
( 3.835412 0.76629 0.496919 ) 
( 1.420219 0.886609 0.496919 ) 
( 1.765246 0.886609 0.496919 ) 
( 2.110274 0.886609 0.496919 ) 
( 2.455301 0.886609 0.496919 ) 
( 2.800329 0.886609 0.496919 ) 
( 3.145356 0.886609 0.496919 ) 
( 3.490384 0.886609 0.496919 ) 
( 3.835412 0.886609 0.496919 ) 
( 1.420219 1.006927 0.496919 ) 
( 1.765246 1.006927 0.496919 ) 
( 2.110274 1.006927 0.496919 ) 
( 2.455301 1.006927 0.496919 ) 
( 2.800329 1.006927 0.496919 ) 
( 3.145356 1.006927 0.496919 ) 
( 3.490384 1.006927 0.496919 ) 
( 3.835412 1.006927 0.496919 ) 
( 1.420219 1.127245 0.496919 ) 
( 1.765246 1.127245 0.496919 ) 
( 2.110274 1.127245 0.496919 ) 
( 2.455301 1.127245 0.496919 ) 
( 2.800329 1.127245 0.496919 ) 
( 3.145356 1.127245 0.496919 ) 
( 3.490384 1.127245 0.496919 ) 
( 3.835412 1.127245 0.496919 ) 
( 1.420219 0.525654 0.631885 ) 
( 1.765246 0.525654 0.631885 ) 
( 2.110274 0.525654 0.631885 ) 
( 2.455301 0.525654 0.631885 ) 
( 2.800329 0.525654 0.631885 ) 
( 3.145356 0.525654 0.631885 ) 
( 3.490384 0.525654 0.631885 ) 
( 3.835412 0.525654 0.631885 ) 
( 1.420219 0.645972 0.631885 ) 
( 1.765246 0.645972 0.631885 ) 
( 2.110274 0.645972 0.631885 ) 
( 2.455301 0.645972 0.631885 ) 
( 2.800329 0.645972 0.631885 ) 
( 3.145356 0.645972 0.631885 ) 
( 3.490384 0.645972 0.631885 ) 
( 3.835412 0.645972 0.631885 ) 
( 1.420219 0.76629 0.631885 ) 
( 1.765246 0.76629 0.631885 ) 
( 2.110274 0.76629 0.631885 ) 
( 2.455301 0.76629 0.631885 ) 
( 2.800329 0.76629 0.631885 ) 
( 3.145356 0.76629 0.631885 ) 
( 3.490384 0.76629 0.631885 ) 
( 3.835412 0.76629 0.631885 ) 
( 1.420219 0.886609 0.631885 ) 
( 1.765246 0.886609 0.631885 ) 
( 2.110274 0.886609 0.631885 ) 
( 2.455301 0.886609 0.631885 ) 
( 2.800329 0.886609 0.631885 ) 
( 3.145356 0.886609 0.631885 ) 
( 3.490384 0.886609 0.631885 ) 
( 3.835412 0.886609 0.631885 ) 
( 1.420219 1.006927 0.631885 ) 
( 1.765246 1.006927 0.631885 ) 
( 2.110274 1.006927 0.631885 ) 
( 2.455301 1.006927 0.631885 ) 
( 2.800329 1.006927 0.631885 ) 
( 3.145356 1.006927 0.631885 ) 
( 3.490384 1.006927 0.631885 ) 
( 3.835412 1.006927 0.631885 ) 
( 1.420219 1.127245 0.631885 ) 
( 1.765246 1.127245 0.631885 ) 
( 2.110274 1.127245 0.631885 ) 
( 2.455301 1.127245 0.631885 ) 
( 2.800329 1.127245 0.631885 ) 
( 3.145356 1.127245 0.631885 ) 
( 3.490384 1.127245 0.631885 ) 
( 3.835412 1.127245 0.631885 ) 
( 1.420219 0.525654 0.766851 ) 
( 1.765246 0.525654 0.766851 ) 
( 2.110274 0.525654 0.766851 ) 
( 2.455301 0.525654 0.766851 ) 
( 2.800329 0.525654 0.766851 ) 
( 3.145356 0.525654 0.766851 ) 
( 3.490384 0.525654 0.766851 ) 
( 3.835412 0.525654 0.766851 ) 
( 1.420219 0.645972 0.766851 ) 
( 1.765246 0.645972 0.766851 ) 
( 2.110274 0.645972 0.766851 ) 
( 2.455301 0.645972 0.766851 ) 
( 2.800329 0.645972 0.766851 ) 
( 3.145356 0.645972 0.766851 ) 
( 3.490384 0.645972 0.766851 ) 
( 3.835412 0.645972 0.766851 ) 
( 1.420219 0.76629 0.766851 ) 
( 1.765246 0.76629 0.766851 ) 
( 2.110274 0.76629 0.766851 ) 
( 2.455301 0.76629 0.766851 ) 
( 2.800329 0.76629 0.766851 ) 
( 3.145356 0.76629 0.766851 ) 
( 3.490384 0.76629 0.766851 ) 
( 3.835412 0.76629 0.766851 ) 
( 1.420219 0.886609 0.766851 ) 
( 1.765246 0.886609 0.766851 ) 
( 2.110274 0.886609 0.766851 ) 
( 2.455301 0.886609 0.766851 ) 
( 2.800329 0.886609 0.766851 ) 
( 3.145356 0.886609 0.766851 ) 
( 3.490384 0.886609 0.766851 ) 
( 3.835412 0.886609 0.766851 ) 
( 1.420219 1.006927 0.766851 ) 
( 1.765246 1.006927 0.766851 ) 
( 2.110274 1.006927 0.766851 ) 
( 2.455301 1.006927 0.766851 ) 
( 2.800329 1.006927 0.766851 ) 
( 3.145356 1.006927 0.766851 ) 
( 3.490384 1.006927 0.766851 ) 
( 3.835412 1.006927 0.766851 ) 
( 1.420219 1.127245 0.766851 ) 
( 1.765246 1.127245 0.766851 ) 
( 2.110274 1.127245 0.766851 ) 
( 2.455301 1.127245 0.766851 ) 
( 2.800329 1.127245 0.766851 ) 
( 3.145356 1.127245 0.766851 ) 
( 3.490384 1.127245 0.766851 ) 
( 3.835412 1.127245 0.766851 ) 
( 1.420219 0.525654 0.901817 ) 
( 1.765246 0.525654 0.901817 ) 
( 2.110274 0.525654 0.901817 ) 
( 2.455301 0.525654 0.901817 ) 
( 2.800329 0.525654 0.901817 ) 
( 3.145356 0.525654 0.901817 ) 
( 3.490384 0.525654 0.901817 ) 
( 3.835412 0.525654 0.901817 ) 
( 1.420219 0.645972 0.901817 ) 
( 1.765246 0.645972 0.901817 ) 
( 2.110274 0.645972 0.901817 ) 
( 2.455301 0.645972 0.901817 ) 
( 2.800329 0.645972 0.901817 ) 
( 3.145356 0.645972 0.901817 ) 
( 3.490384 0.645972 0.901817 ) 
( 3.835412 0.645972 0.901817 ) 
( 1.420219 0.76629 0.901817 ) 
( 1.765246 0.76629 0.901817 ) 
( 2.110274 0.76629 0.901817 ) 
( 2.455301 0.76629 0.901817 ) 
( 2.800329 0.76629 0.901817 ) 
( 3.145356 0.76629 0.901817 ) 
( 3.490384 0.76629 0.901817 ) 
( 3.835412 0.76629 0.901817 ) 
( 1.420219 0.886609 0.901817 ) 
( 1.765246 0.886609 0.901817 ) 
( 2.110274 0.886609 0.901817 ) 
( 2.455301 0.886609 0.901817 ) 
( 2.800329 0.886609 0.901817 ) 
( 3.145356 0.886609 0.901817 ) 
( 3.490384 0.886609 0.901817 ) 
( 3.835412 0.886609 0.901817 ) 
( 1.420219 1.006927 0.901817 ) 
( 1.765246 1.006927 0.901817 ) 
( 2.110274 1.006927 0.901817 ) 
( 2.455301 1.006927 0.901817 ) 
( 2.800329 1.006927 0.901817 ) 
( 3.145356 1.006927 0.901817 ) 
( 3.490384 1.006927 0.901817 ) 
( 3.835412 1.006927 0.901817 ) 
( 1.420219 1.127245 0.901817 ) 
( 1.765246 1.127245 0.901817 ) 
( 2.110274 1.127245 0.901817 ) 
( 2.455301 1.127245 0.901817 ) 
( 2.800329 1.127245 0.901817 ) 
( 3.145356 1.127245 0.901817 ) 
( 3.490384 1.127245 0.901817 ) 
( 3.835412 1.127245 0.901817 ) );


// ************************************************************************* //
